<?xml version="1.0" encoding="UTF-8"?>
<!-- generated on 2019-04-24 10:40:36.536049 by $Id$
  options: -n austin_map.net.xml
-->
<routes xmlns:xsi="http://www.w3.org/2001/XMLSchema-instance" xsi:noNamespaceSchemaLocation="http://sumo.dlr.de/xsd/routes_file.xsd">
    <trip id="0" depart="0.00" from="-192320203#1" to="376404668#11"/>
    <trip id="1" depart="1.00" from="487453894#0" to="-15381565#1"/>
    <trip id="2" depart="2.00" from="-15408818" to="15420975"/>
    <trip id="3" depart="3.00" from="-40544804#8" to="-15410620#0"/>
    <trip id="4" depart="4.00" from="15387975#5" to="436627982"/>
    <trip id="5" depart="5.00" from="-15432091#1" to="453375395#10"/>
    <trip id="6" depart="6.00" from="-15403559#8" to="15433692#1"/>
    <trip id="7" depart="7.00" from="118851018#0" to="-436634210"/>
    <trip id="8" depart="8.00" from="15380431#1" to="575446418"/>
    <trip id="9" depart="9.00" from="247507107#1" to="128248212#0"/>
    <trip id="10" depart="10.00" from="28595295#29" to="15426159#0"/>
    <trip id="11" depart="11.00" from="-15373433#1" to="-15406146#2"/>
    <trip id="12" depart="12.00" from="-31165276#0" to="15403546#1"/>
    <trip id="13" depart="13.00" from="-572706414#0" to="31976254#3"/>
    <trip id="14" depart="14.00" from="-28772355#1" to="15397590#2"/>
    <trip id="15" depart="15.00" from="-15430371#3" to="-15401360#10"/>
    <trip id="16" depart="16.00" from="-480954801#0" to="592763819#3"/>
    <trip id="17" depart="17.00" from="340108823#2" to="15406639#1"/>
    <trip id="18" depart="18.00" from="-352837838#7" to="-15421802#3"/>
    <trip id="19" depart="19.00" from="436632955" to="-15409931#5"/>
    <trip id="20" depart="20.00" from="-15376699" to="163341006#2"/>
    <trip id="21" depart="21.00" from="110165389#22" to="-15384131#0"/>
    <trip id="22" depart="22.00" from="15425229#5" to="15380365#2"/>
    <trip id="23" depart="23.00" from="15420521#3" to="36925447#0"/>
    <trip id="24" depart="24.00" from="-391704119#0" to="15383250"/>
    <trip id="25" depart="25.00" from="-574666956#2" to="15397625#1"/>
    <trip id="26" depart="26.00" from="619163435" to="436726310#7"/>
    <trip id="27" depart="27.00" from="-129809355#1" to="436635815"/>
    <trip id="28" depart="28.00" from="-588496793#3" to="488923701#1"/>
    <trip id="29" depart="29.00" from="-15393557#6" to="-15389340#0"/>
    <trip id="30" depart="30.00" from="-15410019#3" to="118512170#1"/>
    <trip id="31" depart="31.00" from="31009881#0" to="31165277#1"/>
    <trip id="32" depart="32.00" from="627477844#7" to="15427935#0"/>
    <trip id="33" depart="33.00" from="655477178#4" to="15382575#10"/>
    <trip id="34" depart="34.00" from="-15439812#0" to="-373627717#1"/>
    <trip id="35" depart="35.00" from="15393148#1" to="15433153#5"/>
    <trip id="36" depart="36.00" from="436614820#10" to="-15400632#0"/>
    <trip id="37" depart="37.00" from="-329997827#5" to="15407120#4"/>
    <trip id="38" depart="38.00" from="15424253#0" to="-15408093#2"/>
    <trip id="39" depart="39.00" from="-538794437" to="15394520"/>
    <trip id="40" depart="40.00" from="-15411167#3" to="-673910492#2"/>
    <trip id="41" depart="41.00" from="358437642#1" to="15378046#2"/>
    <trip id="42" depart="42.00" from="15420347#0" to="-15391945#6"/>
    <trip id="43" depart="43.00" from="575487405#1" to="15394845#1"/>
    <trip id="44" depart="44.00" from="655432425#1" to="-15407456#3"/>
    <trip id="45" depart="45.00" from="15406509#2" to="633333105"/>
    <trip id="46" depart="46.00" from="180604098#3" to="-574666849#2"/>
    <trip id="47" depart="47.00" from="-166433646#1" to="-15428760#1"/>
    <trip id="48" depart="48.00" from="514285228#8" to="15425604#2"/>
    <trip id="49" depart="49.00" from="124953437#6" to="-204964753#2"/>
    <trip id="50" depart="50.00" from="-15388958#1" to="-480955642#2"/>
    <trip id="51" depart="51.00" from="15377270#0" to="15378636"/>
    <trip id="52" depart="52.00" from="15409777" to="-152432172#12"/>
    <trip id="53" depart="53.00" from="15393610" to="-15441288#0"/>
    <trip id="54" depart="54.00" from="655477610#1" to="15392912#9"/>
    <trip id="55" depart="55.00" from="37833644#0" to="15395083"/>
    <trip id="56" depart="56.00" from="15429112#2" to="531075825#0"/>
    <trip id="57" depart="57.00" from="-15408623#2" to="15382789#3"/>
    <trip id="58" depart="58.00" from="15432730#5" to="321486581#6"/>
    <trip id="59" depart="59.00" from="15396349#2" to="15386736#5"/>
    <trip id="60" depart="60.00" from="15378069#3" to="110166820#0"/>
    <trip id="61" depart="61.00" from="-15426035#0" to="204869520#0-AddedOnRampEdge"/>
    <trip id="62" depart="62.00" from="15435629#15" to="235187596#2"/>
    <trip id="63" depart="63.00" from="15435447#7" to="15430898#11"/>
    <trip id="64" depart="64.00" from="-575833198#1" to="-15395541#1"/>
    <trip id="65" depart="65.00" from="598090811#1" to="639758716"/>
    <trip id="66" depart="66.00" from="36977161#3" to="-15395035#0"/>
    <trip id="67" depart="67.00" from="-571745788#1" to="15382214#2"/>
    <trip id="68" depart="68.00" from="166141186#2" to="-15429889"/>
    <trip id="69" depart="69.00" from="-30757074" to="430970752"/>
    <trip id="70" depart="70.00" from="15439879" to="-15413461#1"/>
    <trip id="71" depart="71.00" from="655432482#1" to="190438867#0"/>
    <trip id="72" depart="72.00" from="-368070910#2" to="15398888#1"/>
    <trip id="73" depart="73.00" from="-350505358#1" to="-15433375#2"/>
    <trip id="74" depart="74.00" from="15440503#0" to="-15404496#1"/>
    <trip id="75" depart="75.00" from="655477233#2" to="-131556004#0"/>
    <trip id="76" depart="76.00" from="463493485#1" to="15389212#2"/>
    <trip id="77" depart="77.00" from="15378426#11" to="15392279#2"/>
    <trip id="78" depart="78.00" from="15401380#5" to="-207256678"/>
    <trip id="79" depart="79.00" from="376393992#5-AddedOffRampEdge" to="655432407#8"/>
    <trip id="80" depart="80.00" from="15426095#2" to="15408600#9"/>
    <trip id="81" depart="81.00" from="15401038#1" to="118116718#2"/>
    <trip id="82" depart="82.00" from="436634451#31" to="179000570"/>
    <trip id="83" depart="83.00" from="15376611#1" to="-210500570#1"/>
    <trip id="84" depart="84.00" from="15377756#2" to="-31146287#5"/>
    <trip id="85" depart="85.00" from="15373989#10" to="-168747416#1"/>
    <trip id="86" depart="86.00" from="15386465#0" to="618456010#3"/>
    <trip id="87" depart="87.00" from="-15425168#1" to="655356971#0"/>
    <trip id="88" depart="88.00" from="656122486-AddedOffRampEdge" to="656122453-AddedOnRampEdge"/>
    <trip id="89" depart="89.00" from="15439524#5" to="163761374#1"/>
    <trip id="90" depart="90.00" from="-436638290" to="-15384339#1"/>
    <trip id="91" depart="91.00" from="-15399994#2" to="-105426309#1"/>
    <trip id="92" depart="92.00" from="110165297#5" to="15385686#4"/>
    <trip id="93" depart="93.00" from="15408521#11" to="-539139604#0"/>
    <trip id="94" depart="94.00" from="-15405103#6" to="-144300007#6"/>
    <trip id="95" depart="95.00" from="15407288#1" to="15410312#0"/>
    <trip id="96" depart="96.00" from="-547286287#0" to="223301266#3"/>
    <trip id="97" depart="97.00" from="15433119#2" to="-15385736#2"/>
    <trip id="98" depart="98.00" from="15384686#2" to="15386497#3"/>
    <trip id="99" depart="99.00" from="-15376702#2" to="318908954#2"/>
    <trip id="100" depart="100.00" from="-31043206#4" to="-204869534#2"/>
    <trip id="101" depart="101.00" from="15437165#0" to="15440801#10"/>
    <trip id="102" depart="102.00" from="15381004#1" to="-152367559#0"/>
    <trip id="103" depart="103.00" from="-15408310#13" to="-15384689#0"/>
    <trip id="104" depart="104.00" from="28772267#1" to="-432889015#1"/>
    <trip id="105" depart="105.00" from="15383465#6" to="-15410021#6"/>
    <trip id="106" depart="106.00" from="15384855#3" to="15394375#4"/>
    <trip id="107" depart="107.00" from="627245516" to="15433050#9"/>
    <trip id="108" depart="108.00" from="315563897#3" to="436723175"/>
    <trip id="109" depart="109.00" from="-388792737#1" to="32070070#1"/>
    <trip id="110" depart="110.00" from="205009598#0" to="287199637#10"/>
    <trip id="111" depart="111.00" from="192362440#2" to="15393757#2"/>
    <trip id="112" depart="112.00" from="15415824" to="15396315#9"/>
    <trip id="113" depart="113.00" from="204974770#22" to="-130889296#1"/>
    <trip id="114" depart="114.00" from="467664505#2" to="575734989#6"/>
    <trip id="115" depart="115.00" from="-28620673#0" to="-31117184"/>
    <trip id="116" depart="116.00" from="206926249#3" to="15408444#1"/>
    <trip id="117" depart="117.00" from="-15405009#4" to="15385038#6"/>
    <trip id="118" depart="118.00" from="15381819#3" to="15430280#9"/>
    <trip id="119" depart="119.00" from="15425886#5" to="69283780#1"/>
    <trip id="120" depart="120.00" from="31989277#2" to="15383632#5"/>
    <trip id="121" depart="121.00" from="-15423131" to="-128928825#2"/>
    <trip id="122" depart="122.00" from="28834062#2" to="-15403830#4"/>
    <trip id="123" depart="123.00" from="-15389987#0" to="15383038#1"/>
    <trip id="124" depart="124.00" from="15401159#2" to="15432058"/>
    <trip id="125" depart="125.00" from="131281627#0" to="436609427#4"/>
    <trip id="126" depart="126.00" from="15397572#3" to="31814049"/>
    <trip id="127" depart="127.00" from="-15438652#3" to="-15395334#6"/>
    <trip id="128" depart="128.00" from="30923982#1" to="487453894#0"/>
    <trip id="129" depart="129.00" from="15406421#3" to="-15390736#3"/>
    <trip id="130" depart="130.00" from="366189598#1" to="-15437432#0"/>
    <trip id="131" depart="131.00" from="-15406221#2" to="15432833#1"/>
    <trip id="132" depart="132.00" from="-540102186#0" to="37400769#1"/>
    <trip id="133" depart="133.00" from="-15409489#1" to="-15405132#2"/>
    <trip id="134" depart="134.00" from="436621137" to="572679687#0"/>
    <trip id="135" depart="135.00" from="-150236863#11" to="373636250#9"/>
    <trip id="136" depart="136.00" from="30841152#2" to="15400385#3"/>
    <trip id="137" depart="137.00" from="-15426633#0" to="-15404519#1"/>
    <trip id="138" depart="138.00" from="-605079226" to="204998699#2"/>
    <trip id="139" depart="139.00" from="-436727658#1" to="173783978#32"/>
    <trip id="140" depart="140.00" from="-436634984#2" to="436633184"/>
    <trip id="141" depart="141.00" from="129809356#2" to="588734926"/>
    <trip id="142" depart="142.00" from="-583804959#0" to="-15437264#4"/>
    <trip id="143" depart="143.00" from="-465595090" to="432514876#2"/>
    <trip id="144" depart="144.00" from="-15381285#9" to="15379511#0"/>
    <trip id="145" depart="145.00" from="394617848#2" to="204851061#3"/>
    <trip id="146" depart="146.00" from="15382037#1" to="544896589#0"/>
    <trip id="147" depart="147.00" from="15379467#2" to="-655432425#0"/>
    <trip id="148" depart="148.00" from="-172472100#1" to="-15427963#5"/>
    <trip id="149" depart="149.00" from="-129809355#1" to="331900479#1"/>
    <trip id="150" depart="150.00" from="15112039" to="15400060#6"/>
    <trip id="151" depart="151.00" from="583081244#0" to="15430527#2"/>
    <trip id="152" depart="152.00" from="-15436695#2" to="585778692#96"/>
    <trip id="153" depart="153.00" from="15406920" to="15382840"/>
    <trip id="154" depart="154.00" from="436633152#0" to="-15392117#1"/>
    <trip id="155" depart="155.00" from="15406253#2" to="246088595#18"/>
    <trip id="156" depart="156.00" from="15427724#3" to="-204998668#1"/>
    <trip id="157" depart="157.00" from="655283341" to="15428798#2"/>
    <trip id="158" depart="158.00" from="-15378598#2" to="619453800"/>
    <trip id="159" depart="159.00" from="235405498" to="-15384516#3"/>
    <trip id="160" depart="160.00" from="15389432#3" to="15410546#0"/>
    <trip id="161" depart="161.00" from="436726302#10" to="28860633"/>
    <trip id="162" depart="162.00" from="15376540#9" to="204974728#1"/>
    <trip id="163" depart="163.00" from="138670194" to="312705004#1"/>
    <trip id="164" depart="164.00" from="-15382701#1" to="-352837838#1"/>
    <trip id="165" depart="165.00" from="-15384632#1" to="352837838#0"/>
    <trip id="166" depart="166.00" from="548632575#1" to="-15401609#1"/>
    <trip id="167" depart="167.00" from="366870788#2" to="15397507#4"/>
    <trip id="168" depart="168.00" from="-415385688#4" to="-31002122#9"/>
    <trip id="169" depart="169.00" from="-352665501#13" to="-15377124"/>
    <trip id="170" depart="170.00" from="172361512#8" to="-170050813#3"/>
    <trip id="171" depart="171.00" from="572214844#3" to="-15402151#2"/>
    <trip id="172" depart="172.00" from="184162592#0" to="15390930#7"/>
    <trip id="173" depart="173.00" from="-15426697#1" to="-204964716#2"/>
    <trip id="174" depart="174.00" from="15381955#3" to="-436635786#1"/>
    <trip id="175" depart="175.00" from="-15435867" to="-15382775#1"/>
    <trip id="176" depart="176.00" from="436729488#1" to="436626561#0"/>
    <trip id="177" depart="177.00" from="-15399558" to="31975879#6"/>
    <trip id="178" depart="178.00" from="-15404000#6" to="30149004#2"/>
    <trip id="179" depart="179.00" from="15439650#1" to="396953313#5"/>
    <trip id="180" depart="180.00" from="15407960#1" to="436749352"/>
    <trip id="181" depart="181.00" from="15391297" to="126536142#3"/>
    <trip id="182" depart="182.00" from="-15399823#1" to="15410087#6"/>
    <trip id="183" depart="183.00" from="263445403" to="-15407394#1"/>
    <trip id="184" depart="184.00" from="323720604#1" to="-15434257#4"/>
    <trip id="185" depart="185.00" from="-15433506#4" to="-15400796#0"/>
    <trip id="186" depart="186.00" from="140562054#12" to="-31706006#3"/>
    <trip id="187" depart="187.00" from="-436626268#0" to="-15406385#1"/>
    <trip id="188" depart="188.00" from="-346157696#0" to="651067008#24"/>
    <trip id="189" depart="189.00" from="15408498#4" to="15406122"/>
    <trip id="190" depart="190.00" from="386749125#0" to="-172865982#0"/>
    <trip id="191" depart="191.00" from="328090354#0-AddedOffRampEdge" to="-15393791#1"/>
    <trip id="192" depart="192.00" from="15442172" to="-15432343"/>
    <trip id="193" depart="193.00" from="-15428604#1" to="-15420280"/>
    <trip id="194" depart="194.00" from="568327412" to="436628000#0"/>
    <trip id="195" depart="195.00" from="15387675#7" to="-15403207#6"/>
    <trip id="196" depart="196.00" from="436731151#2" to="-15440450#0"/>
    <trip id="197" depart="197.00" from="118760307#1" to="15381535#2"/>
    <trip id="198" depart="198.00" from="-144105970#2" to="-15392245#0"/>
    <trip id="199" depart="199.00" from="15403422#2" to="15381355#0"/>
    <trip id="200" depart="200.00" from="15407557#4" to="15425217#0"/>
    <trip id="201" depart="201.00" from="15437477#0" to="135623980#3"/>
    <trip id="202" depart="202.00" from="-15400050#7" to="118131888#12"/>
    <trip id="203" depart="203.00" from="436626561#0" to="-15432432#2"/>
    <trip id="204" depart="204.00" from="15391536#1" to="328283033"/>
    <trip id="205" depart="205.00" from="15404529#4" to="287307759#2"/>
    <trip id="206" depart="206.00" from="15383829#2" to="31954094#2"/>
    <trip id="207" depart="207.00" from="-15399850#0" to="295137009#1"/>
    <trip id="208" depart="208.00" from="15438303#3" to="46136396"/>
    <trip id="209" depart="209.00" from="-30965377#0" to="15380658#1"/>
    <trip id="210" depart="210.00" from="15381657#0" to="490770741"/>
    <trip id="211" depart="211.00" from="15427337#0" to="152284873#1"/>
    <trip id="212" depart="212.00" from="-15410411" to="15384834#10"/>
    <trip id="213" depart="213.00" from="436716132#0" to="-135130507#4"/>
    <trip id="214" depart="214.00" from="-15406545#0" to="-15385386"/>
    <trip id="215" depart="215.00" from="272423217#2" to="15402206"/>
    <trip id="216" depart="216.00" from="-92028909" to="-269942924#4"/>
    <trip id="217" depart="217.00" from="-647320706#1" to="15408275#0"/>
    <trip id="218" depart="218.00" from="436716110" to="-15420190#0"/>
    <trip id="219" depart="219.00" from="15402620#1" to="-15428777#1"/>
    <trip id="220" depart="220.00" from="-15411481#1" to="15383629#0"/>
    <trip id="221" depart="221.00" from="240414613" to="-15382582#1"/>
    <trip id="222" depart="222.00" from="-127818763" to="134566736#2"/>
    <trip id="223" depart="223.00" from="377549489#3" to="15399453"/>
    <trip id="224" depart="224.00" from="-15382507#5" to="455227974"/>
    <trip id="225" depart="225.00" from="-15404926#4" to="15398565#11"/>
    <trip id="226" depart="226.00" from="-15421608#2" to="15437588"/>
    <trip id="227" depart="227.00" from="15395851" to="-15422119#3"/>
    <trip id="228" depart="228.00" from="-84039587#2" to="-15378600"/>
    <trip id="229" depart="229.00" from="-15433815#1" to="15424000#2"/>
    <trip id="230" depart="230.00" from="15403455#2" to="92165903"/>
    <trip id="231" depart="231.00" from="-15435193#10" to="-15408247#1"/>
    <trip id="232" depart="232.00" from="-15391840#2" to="-109492273#1"/>
    <trip id="233" depart="233.00" from="-363863628#0" to="-467023498"/>
    <trip id="234" depart="234.00" from="15388595#1" to="-15429956#2"/>
    <trip id="235" depart="235.00" from="-15390122#2" to="-386743964#3"/>
    <trip id="236" depart="236.00" from="15388927#0" to="-315904410#3"/>
    <trip id="237" depart="237.00" from="103875499#1" to="436640238"/>
    <trip id="238" depart="238.00" from="-15398905" to="-669049991#2"/>
    <trip id="239" depart="239.00" from="583173109" to="15421600"/>
    <trip id="240" depart="240.00" from="235216453#1" to="15377475#0"/>
    <trip id="241" depart="241.00" from="602062635#2" to="-129014478#7"/>
    <trip id="242" depart="242.00" from="-576515521#1" to="436729670"/>
    <trip id="243" depart="243.00" from="148287976#2" to="-15380323#7"/>
    <trip id="244" depart="244.00" from="555021233" to="-15373463#5"/>
    <trip id="245" depart="245.00" from="-15386982" to="15400572#1"/>
    <trip id="246" depart="246.00" from="-31464238#4" to="15386459#9"/>
    <trip id="247" depart="247.00" from="-15381239#3" to="15407884#2"/>
    <trip id="248" depart="248.00" from="-15410300#1" to="-122859434"/>
    <trip id="249" depart="249.00" from="633491130#3" to="-15385934#1"/>
    <trip id="250" depart="250.00" from="-330714490" to="-356708572#2"/>
    <trip id="251" depart="251.00" from="-192353575" to="15411728#2"/>
    <trip id="252" depart="252.00" from="15391961#3" to="-15399855#4"/>
    <trip id="253" depart="253.00" from="436627020#3" to="-539139583"/>
    <trip id="254" depart="254.00" from="204974746#4" to="15397812#1"/>
    <trip id="255" depart="255.00" from="-15384184" to="436761522#2"/>
    <trip id="256" depart="256.00" from="-15408044#0" to="386099281#4"/>
    <trip id="257" depart="257.00" from="-206743681#0" to="-15428925#1"/>
    <trip id="258" depart="258.00" from="522507824" to="27221944"/>
    <trip id="259" depart="259.00" from="15393930#0" to="15407038"/>
    <trip id="260" depart="260.00" from="15408032#8" to="15379685#15"/>
    <trip id="261" depart="261.00" from="15407044#0" to="436611885"/>
    <trip id="262" depart="262.00" from="200084330#1" to="-198678105#1"/>
    <trip id="263" depart="263.00" from="-15427032#7" to="548630778#1"/>
    <trip id="264" depart="264.00" from="15387399#1" to="-15404989#14"/>
    <trip id="265" depart="265.00" from="116968670" to="-15421368#0"/>
    <trip id="266" depart="266.00" from="15393890#1" to="15437512#1"/>
    <trip id="267" depart="267.00" from="28532903#0" to="-15409595#2"/>
    <trip id="268" depart="268.00" from="-15384521#4" to="-173104995#4"/>
    <trip id="269" depart="269.00" from="204869499" to="-678884009#0"/>
    <trip id="270" depart="270.00" from="-15408036#1" to="655283340#2"/>
    <trip id="271" depart="271.00" from="-366511154#2" to="31009881#2"/>
    <trip id="272" depart="272.00" from="15441176#2" to="15400402#2"/>
    <trip id="273" depart="273.00" from="-618783873#4" to="436638308#1"/>
    <trip id="274" depart="274.00" from="-42732174#1" to="15429114"/>
    <trip id="275" depart="275.00" from="15391260#0" to="-15411663#1"/>
    <trip id="276" depart="276.00" from="199910880#0" to="-15407522#6"/>
    <trip id="277" depart="277.00" from="-15393623" to="15436774#0"/>
    <trip id="278" depart="278.00" from="15426080#0" to="-655477698#2"/>
    <trip id="279" depart="279.00" from="656122499#0-AddedOnRampEdge" to="436616424"/>
    <trip id="280" depart="280.00" from="15389056#4" to="-15410462#6"/>
    <trip id="281" depart="281.00" from="126536142#4" to="-15385773#0"/>
    <trip id="282" depart="282.00" from="-31043197#0" to="-373230132#3"/>
    <trip id="283" depart="283.00" from="-325833260#0" to="30830037#0"/>
    <trip id="284" depart="284.00" from="15410494#0" to="-204964746#1"/>
    <trip id="285" depart="285.00" from="-193186836#1" to="-325833260#0"/>
    <trip id="286" depart="286.00" from="128362589#26" to="144881137#2"/>
    <trip id="287" depart="287.00" from="-31148751#2" to="-31986430#1"/>
    <trip id="288" depart="288.00" from="-151965403#7" to="104342137"/>
    <trip id="289" depart="289.00" from="-30815617#2" to="15379481"/>
    <trip id="290" depart="290.00" from="15401090#5" to="386807236#1"/>
    <trip id="291" depart="291.00" from="-327348646#3" to="15386735"/>
    <trip id="292" depart="292.00" from="421984741#2" to="204964675#4"/>
    <trip id="293" depart="293.00" from="-436634993#2" to="544896590#9"/>
    <trip id="294" depart="294.00" from="-15437298#1" to="650091400#2"/>
    <trip id="295" depart="295.00" from="15406193#16" to="15435004"/>
    <trip id="296" depart="296.00" from="224939610#0" to="464032033#2"/>
    <trip id="297" depart="297.00" from="15411686#1" to="-15432822#4"/>
    <trip id="298" depart="298.00" from="15376860" to="15381414"/>
    <trip id="299" depart="299.00" from="-15420953#1" to="-15389144#0"/>
    <trip id="300" depart="300.00" from="321869241#0" to="15394794#1"/>
    <trip id="301" depart="301.00" from="318908825#0" to="-15378091#1"/>
    <trip id="302" depart="302.00" from="15393104#0" to="146653161-AddedOnRampEdge"/>
    <trip id="303" depart="303.00" from="-111673982#0" to="15396633#2"/>
    <trip id="304" depart="304.00" from="15426188#2" to="15388199#5"/>
    <trip id="305" depart="305.00" from="-282623781#1" to="-15378709#0"/>
    <trip id="306" depart="306.00" from="-204964743#13" to="-368697679#3"/>
    <trip id="307" depart="307.00" from="-15295715" to="144881137#3-AddedOnRampEdge"/>
    <trip id="308" depart="308.00" from="15408843#0" to="350277409"/>
    <trip id="309" depart="309.00" from="-15395836#1" to="15378809#1"/>
    <trip id="310" depart="310.00" from="15398982#7" to="436635637#2"/>
    <trip id="311" depart="311.00" from="-15410825" to="436614754#0"/>
    <trip id="312" depart="312.00" from="-204981565#2" to="166063642"/>
    <trip id="313" depart="313.00" from="15408532#0" to="-15378378#6"/>
    <trip id="314" depart="314.00" from="327519498#7" to="31148754#1"/>
    <trip id="315" depart="315.00" from="32041711#3" to="15404694#5"/>
    <trip id="316" depart="316.00" from="15437899#3" to="240656862#2"/>
    <trip id="317" depart="317.00" from="15404704" to="201195211#0"/>
    <trip id="318" depart="318.00" from="-436632397" to="619451453#0"/>
    <trip id="319" depart="319.00" from="150225778#15" to="15383056#7"/>
    <trip id="320" depart="320.00" from="15405943#0" to="-395097858#2"/>
    <trip id="321" depart="321.00" from="-15435289#3" to="31348058#2"/>
    <trip id="322" depart="322.00" from="653927145#4" to="15427313#3"/>
    <trip id="323" depart="323.00" from="-15422661#4" to="15381519#6"/>
    <trip id="324" depart="324.00" from="15407945#1" to="-575454206#4"/>
    <trip id="325" depart="325.00" from="-15424119#10" to="-436733576#4"/>
    <trip id="326" depart="326.00" from="-15392066#5" to="15385457#2"/>
    <trip id="327" depart="327.00" from="15405485#3" to="-28856405#2"/>
    <trip id="328" depart="328.00" from="-15408451#2" to="-172095521#0"/>
    <trip id="329" depart="329.00" from="-258709783#4" to="-15406198#0"/>
    <trip id="330" depart="330.00" from="-641301977#2" to="574708161"/>
    <trip id="331" depart="331.00" from="260030093#0" to="15404603#0"/>
    <trip id="332" depart="332.00" from="15424738#2" to="199922170#5"/>
    <trip id="333" depart="333.00" from="15398167#2" to="-310005048#3"/>
    <trip id="334" depart="334.00" from="15389275#1" to="166063621#0"/>
    <trip id="335" depart="335.00" from="15383958#0" to="-262864429#7"/>
    <trip id="336" depart="336.00" from="539434004#1" to="-204964746#1"/>
    <trip id="337" depart="337.00" from="193396230#0" to="-15399823#1"/>
    <trip id="338" depart="338.00" from="-30837135" to="118871370#2"/>
    <trip id="339" depart="339.00" from="-15395161#1" to="-15436725#0"/>
    <trip id="340" depart="340.00" from="-15380249#3" to="192353939#4"/>
    <trip id="341" depart="341.00" from="-192358837#3" to="15404970#1"/>
    <trip id="342" depart="342.00" from="15422832" to="179389262#1"/>
    <trip id="343" depart="343.00" from="-15426874#1" to="-47390546#5"/>
    <trip id="344" depart="344.00" from="386743966#7" to="-30906583"/>
    <trip id="345" depart="345.00" from="-197700960" to="-15392423#4"/>
    <trip id="346" depart="346.00" from="-15392236" to="224939599#1"/>
    <trip id="347" depart="347.00" from="-128248215#0" to="-605096891#0"/>
    <trip id="348" depart="348.00" from="-117115758#3" to="30619980#4"/>
    <trip id="349" depart="349.00" from="15426810#3" to="-15383301#0"/>
    <trip id="350" depart="350.00" from="148184897" to="15296782#15"/>
    <trip id="351" depart="351.00" from="15408814#5" to="-126536183#0"/>
    <trip id="352" depart="352.00" from="15384457#0" to="15381163#3"/>
    <trip id="353" depart="353.00" from="366333744#0" to="15376922#5"/>
    <trip id="354" depart="354.00" from="15395347#3" to="-15435260#0"/>
    <trip id="355" depart="355.00" from="-172865986#4" to="574684831#2"/>
    <trip id="356" depart="356.00" from="15404000#4" to="393302093#0"/>
    <trip id="357" depart="357.00" from="-628566290#9" to="-15426658#1"/>
    <trip id="358" depart="358.00" from="15388831#5" to="28430380#1"/>
    <trip id="359" depart="359.00" from="15410021#1" to="-15380845#9"/>
    <trip id="360" depart="360.00" from="15398127#0" to="15381018#4"/>
    <trip id="361" depart="361.00" from="-15408340" to="15385938#2"/>
    <trip id="362" depart="362.00" from="27936664#2" to="15381034#4"/>
    <trip id="363" depart="363.00" from="-15425168#5" to="31888927"/>
    <trip id="364" depart="364.00" from="15396832#11" to="15400814#8"/>
    <trip id="365" depart="365.00" from="-15381353" to="636776007"/>
    <trip id="366" depart="366.00" from="15398565#8" to="-31566559#4"/>
    <trip id="367" depart="367.00" from="387948678#0" to="15436492#2"/>
    <trip id="368" depart="368.00" from="-548630771#11" to="436617117#1"/>
    <trip id="369" depart="369.00" from="-480954804#1" to="-15433119#4"/>
    <trip id="370" depart="370.00" from="15431597" to="15387402#0"/>
    <trip id="371" depart="371.00" from="15409399" to="-107383912#0"/>
    <trip id="372" depart="372.00" from="-30098781#2" to="130846134"/>
    <trip id="373" depart="373.00" from="15399405#2" to="15378152#3"/>
    <trip id="374" depart="374.00" from="465034862#0" to="-567646278"/>
    <trip id="375" depart="375.00" from="4652285#1" to="-15434887#4"/>
    <trip id="376" depart="376.00" from="-15425032#2" to="-15390805#0"/>
    <trip id="377" depart="377.00" from="15408268#2" to="15424013#1"/>
    <trip id="378" depart="378.00" from="-185543624#3" to="-108534069#5"/>
    <trip id="379" depart="379.00" from="15404383#7" to="-15385348#0"/>
    <trip id="380" depart="380.00" from="-15410991#2" to="179389372#1"/>
    <trip id="381" depart="381.00" from="-15431953#7" to="-15406253#8"/>
    <trip id="382" depart="382.00" from="199939136" to="-358207155#0"/>
    <trip id="383" depart="383.00" from="-15428351#2" to="27785984#1"/>
    <trip id="384" depart="384.00" from="-15410432#6" to="292813694"/>
    <trip id="385" depart="385.00" from="629225314#0" to="15377634"/>
    <trip id="386" depart="386.00" from="15394982" to="15410839#5"/>
    <trip id="387" depart="387.00" from="-15438950#0" to="-512399051#2"/>
    <trip id="388" depart="388.00" from="154971856#0" to="15425072#23"/>
    <trip id="389" depart="389.00" from="15383220" to="-436617117#7"/>
    <trip id="390" depart="390.00" from="-359247318#4" to="-15409362#4"/>
    <trip id="391" depart="391.00" from="15437523#0" to="-327172665#2"/>
    <trip id="392" depart="392.00" from="-46594024#3" to="-15384813#2"/>
    <trip id="393" depart="393.00" from="-201349432#3" to="-315904410#0"/>
    <trip id="394" depart="394.00" from="-331454915#1" to="28532904#3"/>
    <trip id="395" depart="395.00" from="15410448" to="655477645#4"/>
    <trip id="396" depart="396.00" from="-130210881" to="15379438#0"/>
    <trip id="397" depart="397.00" from="364059952#10" to="-366870788#0"/>
    <trip id="398" depart="398.00" from="549656444#6" to="-15408310#8"/>
    <trip id="399" depart="399.00" from="388809585#2" to="-15383895#5"/>
    <trip id="400" depart="400.00" from="-635024957#1" to="655501713#0"/>
    <trip id="401" depart="401.00" from="-15408065#9" to="-122981725"/>
    <trip id="402" depart="402.00" from="15424970#5" to="15437948"/>
    <trip id="403" depart="403.00" from="-655501756" to="-15398967#1"/>
    <trip id="404" depart="404.00" from="625003108#1" to="-15420528#0"/>
    <trip id="405" depart="405.00" from="-15381449#8" to="15420821"/>
    <trip id="406" depart="406.00" from="15405336#2" to="-15383539#7"/>
    <trip id="407" depart="407.00" from="-162277703#0" to="395055961#0"/>
    <trip id="408" depart="408.00" from="-568327416#1" to="-386587750#1"/>
    <trip id="409" depart="409.00" from="-15423830#2" to="15410872#2"/>
    <trip id="410" depart="410.00" from="436619880#0" to="148288104#2-AddedOffRampEdge"/>
    <trip id="411" depart="411.00" from="-15383274#1" to="282623782"/>
    <trip id="412" depart="412.00" from="15387500#0" to="368697686#16"/>