<?xml version="1.0" encoding="UTF-8"?>
<!-- generated on 2019-04-24 09:21:18.785761 by $Id$
  options: -n /home/lucaszl/Downloads/chicago_map.net.xml
-->
<routes xmlns:xsi="http://www.w3.org/2001/XMLSchema-instance" xsi:noNamespaceSchemaLocation="http://sumo.dlr.de/xsd/routes_file.xsd">
    <trip id="0" depart="0.00" from="583186042#9" to="-24081907#2"/>
    <trip id="1" depart="1.00" from="230365483" to="-196459409#3"/>
    <trip id="2" depart="2.00" from="288398864#5" to="435396511"/>
    <trip id="3" depart="3.00" from="-56246308#9" to="196409255#12"/>
    <trip id="4" depart="4.00" from="435341512#1" to="-24099992#1"/>
    <trip id="5" depart="5.00" from="-22090712#5" to="22083557#0"/>
    <trip id="6" depart="6.00" from="24097187#9" to="-24116667#16"/>
    <trip id="7" depart="7.00" from="24102037#1" to="35333817#5"/>
    <trip id="8" depart="8.00" from="24079847#3" to="-541643997#10"/>
    <trip id="9" depart="9.00" from="57774958#1" to="-24079658#6"/>
    <trip id="10" depart="10.00" from="-24073685#4" to="160152031#0"/>
    <trip id="11" depart="11.00" from="-24089426#6" to="-24108317#9"/>
    <trip id="12" depart="12.00" from="230775773" to="58091456#2"/>
    <trip id="13" depart="13.00" from="24078372#19" to="24101751#5"/>
    <trip id="14" depart="14.00" from="-679546746#5" to="43267048#0"/>
    <trip id="15" depart="15.00" from="22113574#0" to="-8397451#1"/>
    <trip id="16" depart="16.00" from="43047255#8" to="-223635084#21"/>
    <trip id="17" depart="17.00" from="-22086678#1" to="-24098859#16"/>
    <trip id="18" depart="18.00" from="122890656#1" to="-24083404#9"/>
    <trip id="19" depart="19.00" from="24105232#6" to="654203238#13"/>
    <trip id="20" depart="20.00" from="200339650#9" to="525814187#5"/>
    <trip id="21" depart="21.00" from="217945769#10" to="347393583"/>
    <trip id="22" depart="22.00" from="-24093428#5" to="95186622#32"/>
    <trip id="23" depart="23.00" from="435506104#0" to="435385545#1"/>
    <trip id="24" depart="24.00" from="24091183#4" to="17409457"/>
    <trip id="25" depart="25.00" from="-249977107#2" to="-367167844#2"/>
    <trip id="26" depart="26.00" from="194962512#25" to="24096186#0"/>
    <trip id="27" depart="27.00" from="24080300#2" to="-24108396#0"/>
    <trip id="28" depart="28.00" from="24082855#9" to="24087045#8"/>
    <trip id="29" depart="29.00" from="435396499#0" to="24071988#2"/>
    <trip id="30" depart="30.00" from="-178087064#10" to="24115401#7"/>
    <trip id="31" depart="31.00" from="225790489#0" to="171244104#7"/>
    <trip id="32" depart="32.00" from="-435484245" to="24094032"/>
    <trip id="33" depart="33.00" from="-315963120#3" to="650344562#2"/>
    <trip id="34" depart="34.00" from="474070959#2" to="-428583934#1"/>
    <trip id="35" depart="35.00" from="24098387#7" to="-428483672#0"/>
    <trip id="36" depart="36.00" from="24087189#5" to="-435368599#0"/>
    <trip id="37" depart="37.00" from="-86367429" to="-24088640#1"/>
    <trip id="38" depart="38.00" from="428607718" to="-435320232#2"/>
    <trip id="39" depart="39.00" from="-24203326#12" to="24112195#2"/>
    <trip id="40" depart="40.00" from="-22084795" to="-24083105#0"/>
    <trip id="41" depart="41.00" from="633919481#2" to="-428624909"/>
    <trip id="42" depart="42.00" from="-86249453#4" to="-17410437#0"/>
    <trip id="43" depart="43.00" from="-604056157#2" to="-216596577#14"/>
    <trip id="44" depart="44.00" from="608266695#3" to="435570929#0"/>
    <trip id="45" depart="45.00" from="406711198#15" to="24081610#0"/>
    <trip id="46" depart="46.00" from="17419158#15" to="-22118606"/>
    <trip id="47" depart="47.00" from="-22081385#3" to="57781930#2"/>
    <trip id="48" depart="48.00" from="130709993#25" to="-324615353#15"/>
    <trip id="49" depart="49.00" from="24078236#5" to="24096617#11"/>
    <trip id="50" depart="50.00" from="554817553" to="196351807#4"/>
    <trip id="51" depart="51.00" from="-24078605#12" to="-173386625#3"/>
    <trip id="52" depart="52.00" from="25865173#0-AddedOffRampEdge" to="24081224#1"/>
    <trip id="53" depart="53.00" from="-22114371#2" to="-435551664"/>
    <trip id="54" depart="54.00" from="608266695#28" to="583708610#6"/>
    <trip id="55" depart="55.00" from="24080109#3" to="97519806#6"/>
    <trip id="56" depart="56.00" from="-348877296#5" to="39942896#3"/>
    <trip id="57" depart="57.00" from="-24099816#5" to="24096646#33"/>
    <trip id="58" depart="58.00" from="-24097887#0" to="-250054146#2"/>
    <trip id="59" depart="59.00" from="-24083165#1" to="24097850"/>
    <trip id="60" depart="60.00" from="-24104506#3" to="435358187#15"/>
    <trip id="61" depart="61.00" from="-435366595#5" to="24074230#1"/>
    <trip id="62" depart="62.00" from="-24090808#39" to="24110285#0"/>
    <trip id="63" depart="63.00" from="209413021#3" to="-24087012#10"/>
    <trip id="64" depart="64.00" from="-24094902#13" to="-427712781#7"/>
    <trip id="65" depart="65.00" from="22082440#0" to="-24101197#2"/>
    <trip id="66" depart="66.00" from="24106298#19" to="24078022#1"/>
    <trip id="67" depart="67.00" from="-57708070#1" to="24303320"/>
    <trip id="68" depart="68.00" from="24066632#1" to="435363821"/>
    <trip id="69" depart="69.00" from="24070762#7" to="24078596#10"/>
    <trip id="70" depart="70.00" from="24089783#2" to="-24108321#7"/>
    <trip id="71" depart="71.00" from="279449858#3" to="24093317#6"/>
    <trip id="72" depart="72.00" from="22082978#2" to="24090164"/>
    <trip id="73" depart="73.00" from="428493757#19" to="24089299#1"/>
    <trip id="74" depart="74.00" from="24090522#3" to="57359914#4"/>
    <trip id="75" depart="75.00" from="-24103309#0" to="-24101838"/>
    <trip id="76" depart="76.00" from="406711355#3" to="-323938350#6"/>
    <trip id="77" depart="77.00" from="24089222#4" to="24115672#0"/>
    <trip id="78" depart="78.00" from="-24078439#8" to="-367367200#21"/>
    <trip id="79" depart="79.00" from="24109656#18" to="24117273#14"/>
    <trip id="80" depart="80.00" from="24099746#0" to="96849399#34"/>
    <trip id="81" depart="81.00" from="24113000#6" to="583189624#12"/>
    <trip id="82" depart="82.00" from="24093242#27" to="-17425613#2"/>
    <trip id="83" depart="83.00" from="-24088781#0" to="-273203792#0"/>
    <trip id="84" depart="84.00" from="583139943#4" to="234337296#28"/>
    <trip id="85" depart="85.00" from="24107629#7" to="24108321#3"/>
    <trip id="86" depart="86.00" from="-59331688#9" to="661223153#0"/>
    <trip id="87" depart="87.00" from="23989680#11" to="-41863968#0"/>
    <trip id="88" depart="88.00" from="-24099394#3" to="-24116481#2"/>
    <trip id="89" depart="89.00" from="233625772#2" to="313911535#1"/>
    <trip id="90" depart="90.00" from="-24097049#1" to="151906982"/>
    <trip id="91" depart="91.00" from="-428602830#5" to="-350921580#8"/>
    <trip id="92" depart="92.00" from="233626005#3" to="-61433099"/>
    <trip id="93" depart="93.00" from="24071900#0" to="24088594#8"/>
    <trip id="94" depart="94.00" from="145611361#3" to="-17412236#4"/>
    <trip id="95" depart="95.00" from="231003199" to="24088598#20"/>
    <trip id="96" depart="96.00" from="-435653425#1" to="-24089517#3"/>
    <trip id="97" depart="97.00" from="24109650#3" to="24093633#2"/>
    <trip id="98" depart="98.00" from="24118350#11" to="22083955#5"/>
    <trip id="99" depart="99.00" from="34072948#3" to="-58700106#0"/>
    <trip id="100" depart="100.00" from="549272319#3" to="-576981360"/>
    <trip id="101" depart="101.00" from="-22098202#1" to="25865015"/>
    <trip id="102" depart="102.00" from="22089191#1" to="-24079748#3"/>
    <trip id="103" depart="103.00" from="202347236#1" to="-225585842#1"/>
    <trip id="104" depart="104.00" from="42848388#5" to="24116019#0"/>
    <trip id="105" depart="105.00" from="327672341#0" to="24079022#12"/>
    <trip id="106" depart="106.00" from="-24072833#3" to="22101113#0"/>
    <trip id="107" depart="107.00" from="572224431#4" to="24076574#11"/>
    <trip id="108" depart="108.00" from="-145780766#8" to="24075610#2"/>
    <trip id="109" depart="109.00" from="24072562#18" to="-24085041#3"/>
    <trip id="110" depart="110.00" from="-24076890#0" to="-22090057#15"/>
    <trip id="111" depart="111.00" from="-24086289#5" to="-24096190#4"/>
    <trip id="112" depart="112.00" from="435373138#0" to="22089188#1"/>
    <trip id="113" depart="113.00" from="518505581" to="41323449#22"/>
    <trip id="114" depart="114.00" from="626562981#0" to="-22087632#1"/>
    <trip id="115" depart="115.00" from="-22086025#1" to="-488356723#1"/>
    <trip id="116" depart="116.00" from="24114315#5" to="-24078549#1"/>
    <trip id="117" depart="117.00" from="-24084888#4" to="549854649#0"/>
    <trip id="118" depart="118.00" from="235940469#0" to="-24574325#23"/>
    <trip id="119" depart="119.00" from="-652145471#3" to="-34319167#5"/>
    <trip id="120" depart="120.00" from="-391225084#10" to="209449959#7"/>
    <trip id="121" depart="121.00" from="377930064#2" to="-180320581#1"/>
    <trip id="122" depart="122.00" from="196358035#29" to="-428548790#0"/>
    <trip id="123" depart="123.00" from="24087333#2" to="-221397673#6"/>
    <trip id="124" depart="124.00" from="24103757#0" to="428516374"/>
    <trip id="125" depart="125.00" from="583458404#4" to="260927833#1"/>
    <trip id="126" depart="126.00" from="-24075149#14" to="35767809#9"/>
    <trip id="127" depart="127.00" from="24116478#3" to="24097960#38"/>
    <trip id="128" depart="128.00" from="24079085#3" to="-435329267"/>
    <trip id="129" depart="129.00" from="24117055#0" to="56995800#9"/>
    <trip id="130" depart="130.00" from="-172542779#3" to="427712135#3"/>
    <trip id="131" depart="131.00" from="-43542425#17" to="-118055623#7"/>
    <trip id="132" depart="132.00" from="-56246308#16" to="-24072826#0"/>
    <trip id="133" depart="133.00" from="-173075184#1" to="24078825#4"/>
    <trip id="134" depart="134.00" from="-466445397" to="22091219#11"/>
    <trip id="135" depart="135.00" from="24110657#1" to="-145810590#53"/>
    <trip id="136" depart="136.00" from="-24107868#15" to="-24084888#4"/>
    <trip id="137" depart="137.00" from="-17411108#8" to="145813117#2"/>
    <trip id="138" depart="138.00" from="-43268594#13" to="270772967#2"/>
    <trip id="139" depart="139.00" from="599257255" to="-24073116#0"/>
    <trip id="140" depart="140.00" from="57035024#7" to="-24092877#6"/>
    <trip id="141" depart="141.00" from="145095200#2" to="56464357#1"/>
    <trip id="142" depart="142.00" from="24077104#3" to="435380608#1"/>
    <trip id="143" depart="143.00" from="196459374#3" to="24089662#0"/>
    <trip id="144" depart="144.00" from="-428483679#2" to="24076996#1"/>
    <trip id="145" depart="145.00" from="217945769#16" to="-58569719#8"/>
    <trip id="146" depart="146.00" from="435547808#0" to="24116341#25"/>
    <trip id="147" depart="147.00" from="-24081634#11" to="24102334#3"/>
    <trip id="148" depart="148.00" from="315048942#1" to="583468441"/>
    <trip id="149" depart="149.00" from="24080847#13" to="428624905"/>
    <trip id="150" depart="150.00" from="-24093637#14" to="-490740224#1"/>
    <trip id="151" depart="151.00" from="-22107771#18" to="24103313#0"/>
    <trip id="152" depart="152.00" from="196337124#1" to="315449327#4"/>
    <trip id="153" depart="153.00" from="-209893084#1" to="58562079#1"/>
    <trip id="154" depart="154.00" from="-231035669" to="224810391#0"/>
    <trip id="155" depart="155.00" from="481257971#1" to="-435551563#1"/>
    <trip id="156" depart="156.00" from="59498492#4" to="-235386816#19"/>
    <trip id="157" depart="157.00" from="633414224#0" to="-24073829#6"/>
    <trip id="158" depart="158.00" from="551496049#0" to="24076405#5"/>
    <trip id="159" depart="159.00" from="229737987#5" to="24084292#0"/>
    <trip id="160" depart="160.00" from="-435365513#7" to="226452220#25"/>
    <trip id="161" depart="161.00" from="-24106517#6" to="-24081177#7"/>
    <trip id="162" depart="162.00" from="-24094767#2" to="642914903#1"/>
    <trip id="163" depart="163.00" from="24086646#3" to="-22101803#4"/>
    <trip id="164" depart="164.00" from="317622794#0" to="-24075137#5"/>
    <trip id="165" depart="165.00" from="23701604#0" to="315449310#2"/>
    <trip id="166" depart="166.00" from="24096355#8" to="-24079076#5"/>
    <trip id="167" depart="167.00" from="208648656#18" to="24105715#4"/>
    <trip id="168" depart="168.00" from="-22121082#0" to="24089559"/>
    <trip id="169" depart="169.00" from="-435486146#1" to="-435358187#0"/>
    <trip id="170" depart="170.00" from="-428515093#1" to="-24118018#2"/>
    <trip id="171" depart="171.00" from="-435396202#4" to="-24085324#4"/>
    <trip id="172" depart="172.00" from="-24074384#0" to="59499152#1"/>
    <trip id="173" depart="173.00" from="22084774#1" to="24077049#5"/>
    <trip id="174" depart="174.00" from="-428476425" to="57707989#8"/>
    <trip id="175" depart="175.00" from="-17427823#1" to="-209332747#2"/>
    <trip id="176" depart="176.00" from="22114666#4" to="428644403#1"/>
    <trip id="177" depart="177.00" from="223767796#1" to="-313911543#0"/>
    <trip id="178" depart="178.00" from="22085252#4" to="-22060203"/>
    <trip id="179" depart="179.00" from="583177278#1" to="24107110#8"/>
    <trip id="180" depart="180.00" from="104945908" to="-57716988#31"/>
    <trip id="181" depart="181.00" from="187422414#1-AddedOnRampEdge" to="-583708610#5"/>
    <trip id="182" depart="182.00" from="650813189#0" to="-22083417#0"/>
    <trip id="183" depart="183.00" from="-435535119#3" to="-24107131#15"/>
    <trip id="184" depart="184.00" from="24076483#7" to="354684620#5"/>
    <trip id="185" depart="185.00" from="-24093685#3" to="24115895#0"/>
    <trip id="186" depart="186.00" from="24074482#13" to="-24079474#5"/>
    <trip id="187" depart="187.00" from="-24101092#3" to="-24111469#3"/>
    <trip id="188" depart="188.00" from="43267048#3" to="-145815745#7"/>
    <trip id="189" depart="189.00" from="17413852#3" to="-24102782#5"/>
    <trip id="190" depart="190.00" from="553567936#0" to="583152049#10"/>
    <trip id="191" depart="191.00" from="-196409138#6" to="583191996"/>
    <trip id="192" depart="192.00" from="-24086070#6" to="-492650137#0"/>
    <trip id="193" depart="193.00" from="-231978525#37" to="607665727"/>
    <trip id="194" depart="194.00" from="24101433#6" to="24116478#33"/>
    <trip id="195" depart="195.00" from="208648639#6" to="-631097091#0"/>
    <trip id="196" depart="196.00" from="429866402#10" to="168764414"/>
    <trip id="197" depart="197.00" from="-24085397" to="233929602#7"/>
    <trip id="198" depart="198.00" from="623940517" to="272519653#2"/>
    <trip id="199" depart="199.00" from="136336723#5" to="57280896#15"/>
    <trip id="200" depart="200.00" from="421862054#2" to="-673279299#2"/>
    <trip id="201" depart="201.00" from="24102933#3" to="-24096755#5"/>
    <trip id="202" depart="202.00" from="-22102317" to="-22109864#3"/>
    <trip id="203" depart="203.00" from="24095366#12" to="-146084429#10"/>
    <trip id="204" depart="204.00" from="-24091142#1" to="-39169126#7"/>
    <trip id="205" depart="205.00" from="210186978#12" to="24086392#10"/>
    <trip id="206" depart="206.00" from="-435395173#6" to="428590560"/>
    <trip id="207" depart="207.00" from="-59686884#0" to="24102326#21"/>
    <trip id="208" depart="208.00" from="-24077541#1" to="-435342380"/>
    <trip id="209" depart="209.00" from="-24117820#8" to="-23159102#1"/>
    <trip id="210" depart="210.00" from="-230283060#0" to="317622795#1-AddedOnRampEdge"/>
    <trip id="211" depart="211.00" from="439634495#1" to="22091741#1"/>
    <trip id="212" depart="212.00" from="610283077#8" to="24079578"/>
    <trip id="213" depart="213.00" from="33264065#6" to="-435349567#1"/>
    <trip id="214" depart="214.00" from="-430726044#2" to="22092264#1"/>
    <trip id="215" depart="215.00" from="-24080694#3" to="97051301#14"/>
    <trip id="216" depart="216.00" from="-24097924#0" to="24111184#9"/>
    <trip id="217" depart="217.00" from="196351813#20" to="24107192#5"/>
    <trip id="218" depart="218.00" from="48842261" to="682224298#5"/>
    <trip id="219" depart="219.00" from="-17415170#4" to="48842221#0"/>
    <trip id="220" depart="220.00" from="-350631208#0" to="160152033#1"/>
    <trip id="221" depart="221.00" from="-435327781#2" to="-24101885#7"/>
    <trip id="222" depart="222.00" from="22107541#2" to="-24090110#0"/>
    <trip id="223" depart="223.00" from="435319105#6" to="-130709993#3"/>
    <trip id="224" depart="224.00" from="231422924#9" to="-209332747#12"/>
    <trip id="225" depart="225.00" from="24081692#9" to="24074966#14"/>
    <trip id="226" depart="226.00" from="24114715#2" to="24069220"/>
    <trip id="227" depart="227.00" from="57292522#7" to="-24098821#1"/>
    <trip id="228" depart="228.00" from="-179461512" to="-24093588#11"/>
    <trip id="229" depart="229.00" from="-22092822#3" to="-24074889#0"/>
    <trip id="230" depart="230.00" from="24100795#20" to="24110097#5"/>
    <trip id="231" depart="231.00" from="231226048#1" to="-27861324#6"/>
    <trip id="232" depart="232.00" from="120327319#5" to="173398972#1"/>
    <trip id="233" depart="233.00" from="22082978#5" to="-24114009#1"/>
    <trip id="234" depart="234.00" from="24071287#1" to="224812182#6"/>
    <trip id="235" depart="235.00" from="24094160#6" to="162250181#10"/>
    <trip id="236" depart="236.00" from="389475140#0" to="61602398#0"/>
    <trip id="237" depart="237.00" from="-319208655#1" to="-24072379#4"/>
    <trip id="238" depart="238.00" from="-24073992#3" to="24083500#9"/>
    <trip id="239" depart="239.00" from="-401896409#10" to="-435394289"/>
    <trip id="240" depart="240.00" from="-24081946#2" to="233699799#24"/>
    <trip id="241" depart="241.00" from="156316421#3" to="-24093585#1"/>
    <trip id="242" depart="242.00" from="-32671330" to="24114319#0"/>
    <trip id="243" depart="243.00" from="-22086127#0" to="-24082950#2"/>
    <trip id="244" depart="244.00" from="-24114709#12" to="-406711363#14"/>
    <trip id="245" depart="245.00" from="-553492299#5" to="173326788#0"/>
    <trip id="246" depart="246.00" from="-625161103#9" to="219050793#12"/>
    <trip id="247" depart="247.00" from="22088905#9" to="24083924#0"/>
    <trip id="248" depart="248.00" from="-24093242#6" to="24099814"/>
    <trip id="249" depart="249.00" from="-582882869#1" to="-27827252#4"/>
    <trip id="250" depart="250.00" from="-33834437#4" to="24102179#2"/>
    <trip id="251" depart="251.00" from="24089569#2" to="-435374374#0"/>
    <trip id="252" depart="252.00" from="-24076256#0" to="24106360#1"/>
    <trip id="253" depart="253.00" from="166803100#8" to="39269551#3"/>
    <trip id="254" depart="254.00" from="-24072507#19" to="24114892#10"/>
    <trip id="255" depart="255.00" from="57767355#10" to="-454439760#2"/>
    <trip id="256" depart="256.00" from="-43314642#2" to="435363714"/>
    <trip id="257" depart="257.00" from="-24115328#2" to="-24088755#9"/>
    <trip id="258" depart="258.00" from="24100038" to="315115064#7"/>
    <trip id="259" depart="259.00" from="24114153#7" to="-230353003#1"/>
    <trip id="260" depart="260.00" from="24108235#13" to="572046993#0"/>
    <trip id="261" depart="261.00" from="-194873111#20" to="435331500#1"/>
    <trip id="262" depart="262.00" from="24093577" to="-24085462#3"/>
    <trip id="263" depart="263.00" from="-24116322#13" to="-24096434#6"/>
    <trip id="264" depart="264.00" from="-22085038#10" to="24077417#14"/>
    <trip id="265" depart="265.00" from="-435327293#1" to="-225364333#5"/>
    <trip id="266" depart="266.00" from="-24101828#23" to="-270772965#1"/>
    <trip id="267" depart="267.00" from="22087142#2" to="24111109#44"/>
    <trip id="268" depart="268.00" from="24112355" to="604056160#2"/>
    <trip id="269" depart="269.00" from="-196351809#2" to="-435572095#6"/>
    <trip id="270" depart="270.00" from="647470257#37" to="-129994460#6"/>
    <trip id="271" depart="271.00" from="-17424634#13" to="-23296035#35"/>
    <trip id="272" depart="272.00" from="-428617540" to="312317945#7"/>
    <trip id="273" depart="273.00" from="24091565#7" to="-24115175#20"/>
    <trip id="274" depart="274.00" from="519172362#3" to="24081752#23"/>
    <trip id="275" depart="275.00" from="-259501367#0" to="23745296#9"/>
    <trip id="276" depart="276.00" from="-661296031#7" to="-24107106#6"/>
    <trip id="277" depart="277.00" from="-22084195#6" to="-24078650#4"/>
    <trip id="278" depart="278.00" from="-24100287#2" to="-58060559#8"/>
    <trip id="279" depart="279.00" from="24084717#4" to="-24087094#6"/>
    <trip id="280" depart="280.00" from="24101390#5" to="552595046"/>
    <trip id="281" depart="281.00" from="-239132544#7" to="-22117630#7"/>
    <trip id="282" depart="282.00" from="24096431#39" to="31445932#20"/>
    <trip id="283" depart="283.00" from="-22088682#2" to="-24087748"/>
    <trip id="284" depart="284.00" from="33263002#3" to="4388492"/>
    <trip id="285" depart="285.00" from="-461519149#1" to="22084340#0"/>
    <trip id="286" depart="286.00" from="-24117273#2" to="-24080172#2"/>
    <trip id="287" depart="287.00" from="-435535106#5" to="24101921"/>
    <trip id="288" depart="288.00" from="-583152616#4" to="-625165573#1"/>
    <trip id="289" depart="289.00" from="-17417807#5" to="435534928"/>
    <trip id="290" depart="290.00" from="418058432" to="-17425641#8"/>
    <trip id="291" depart="291.00" from="-184854106#0" to="40784998#1"/>
    <trip id="292" depart="292.00" from="24070915#2" to="-24722203#3"/>
    <trip id="293" depart="293.00" from="24089119#1" to="-61432996#3"/>
    <trip id="294" depart="294.00" from="-435338223#0" to="608276982#4"/>
    <trip id="295" depart="295.00" from="-24109837#1" to="-194962468#2"/>
    <trip id="296" depart="296.00" from="-131617137#0" to="-24109095#13"/>
    <trip id="297" depart="297.00" from="-22069950#1" to="22091721#3"/>
    <trip id="298" depart="298.00" from="31233386-AddedOffRampEdge" to="-196409160#0"/>
    <trip id="299" depart="299.00" from="216296633#1" to="24092227#0"/>
    <trip id="300" depart="300.00" from="24098665#1" to="17418637#9"/>
    <trip id="301" depart="301.00" from="-24102449#6" to="-22090725#0"/>
    <trip id="302" depart="302.00" from="-23296035#41" to="24087219#13"/>
    <trip id="303" depart="303.00" from="22069014#2" to="-221672427#0"/>
    <trip id="304" depart="304.00" from="47851318#4" to="-24087776#6"/>
    <trip id="305" depart="305.00" from="24102423#2" to="23744841#3"/>
    <trip id="306" depart="306.00" from="35147870#3" to="-24102497#4"/>
    <trip id="307" depart="307.00" from="131447673#5" to="-169937857#2"/>
    <trip id="308" depart="308.00" from="-22090582#30" to="43267048#4"/>
    <trip id="309" depart="309.00" from="-24078418#1" to="24089185#0"/>
    <trip id="310" depart="310.00" from="145810590#43" to="24117114#14"/>
    <trip id="311" depart="311.00" from="24089787#6" to="24076042#2"/>
    <trip id="312" depart="312.00" from="654113098#1" to="24091552#3"/>
    <trip id="313" depart="313.00" from="-145609975#0" to="428487437"/>
    <trip id="314" depart="314.00" from="-22082729#0" to="24072298#2"/>
    <trip id="315" depart="315.00" from="24083792#5" to="-313337261#4"/>
    <trip id="316" depart="316.00" from="166487557#17" to="435530869#1"/>
    <trip id="317" depart="317.00" from="660553810#1" to="-35472570#2"/>
    <trip id="318" depart="318.00" from="231223589#0" to="406711351#27"/>
    <trip id="319" depart="319.00" from="-507620990#7" to="-234344844#0"/>
    <trip id="320" depart="320.00" from="-24072934#4" to="24112735#11"/>
    <trip id="321" depart="321.00" from="-24078473#22" to="24078611#3"/>
    <trip id="322" depart="322.00" from="216357508#3" to="24103572#21"/>
    <trip id="323" depart="323.00" from="24111964#12" to="-23740414#2"/>
    <trip id="324" depart="324.00" from="24108752#13" to="22085570#3"/>
    <trip id="325" depart="325.00" from="24109074" to="-24078203#18"/>
    <trip id="326" depart="326.00" from="-428642208#1" to="24070884#2"/>
    <trip id="327" depart="327.00" from="22082559" to="17412683#0"/>
    <trip id="328" depart="328.00" from="-17418441#6" to="57292522#6"/>
    <trip id="329" depart="329.00" from="24103982#1" to="-48373568#0"/>
    <trip id="330" depart="330.00" from="253737727#18" to="57766934#11"/>
    <trip id="331" depart="331.00" from="-24093631#4" to="-22091969#1"/>
    <trip id="332" depart="332.00" from="-17411958#0" to="24095683#4"/>
    <trip id="333" depart="333.00" from="146084433#9" to="-213925588#4"/>
    <trip id="334" depart="334.00" from="194852700#3" to="24075398#12"/>
    <trip id="335" depart="335.00" from="24080943#1" to="-59148834#0"/>
    <trip id="336" depart="336.00" from="-24083746#4" to="17414556#1"/>
    <trip id="337" depart="337.00" from="-367158853#5" to="24105475#0"/>
    <trip id="338" depart="338.00" from="24088853#2" to="415382180#2"/>
    <trip id="339" depart="339.00" from="24080472#7" to="435670093#2"/>
    <trip id="340" depart="340.00" from="-194962497#4" to="-586931138#24"/>
    <trip id="341" depart="341.00" from="24099125#3" to="24085090"/>
    <trip id="342" depart="342.00" from="22099677#1" to="-22061127"/>
    <trip id="343" depart="343.00" from="-28084766#0" to="435382090"/>
    <trip id="344" depart="344.00" from="220203564#8" to="47645790#7"/>
    <trip id="345" depart="345.00" from="24113499#5" to="-314974153#3"/>
    <trip id="346" depart="346.00" from="-435563066#7" to="435653764#0"/>
    <trip id="347" depart="347.00" from="34075130#4" to="-581910239#2"/>
    <trip id="348" depart="348.00" from="-435525347" to="-435669142#2"/>
    <trip id="349" depart="349.00" from="24076994#1" to="-22104333#0"/>
    <trip id="350" depart="350.00" from="-270244278#5" to="622491763"/>
    <trip id="351" depart="351.00" from="435328456#4" to="435370252"/>
    <trip id="352" depart="352.00" from="-24076152#8" to="-145814219#2"/>
    <trip id="353" depart="353.00" from="435526566" to="-435395195"/>
    <trip id="354" depart="354.00" from="-22109697#3" to="24092826#17"/>
    <trip id="355" depart="355.00" from="24101437#1" to="28907381#1"/>
    <trip id="356" depart="356.00" from="-17426158#0" to="33262072"/>
    <trip id="357" depart="357.00" from="-109699062#0" to="57359914#22"/>
    <trip id="358" depart="358.00" from="-24271825#14" to="-287930893#29"/>
    <trip id="359" depart="359.00" from="-23810299#1" to="435329549#2"/>
    <trip id="360" depart="360.00" from="36358684#2" to="-24085832#3"/>
    <trip id="361" depart="361.00" from="-131450488#1" to="-435348725#1"/>
    <trip id="362" depart="362.00" from="24117331#5" to="176749015#7"/>
    <trip id="363" depart="363.00" from="-24087447#0" to="-163148232#11"/>
    <trip id="364" depart="364.00" from="234328888#17" to="196409217#26"/>
    <trip id="365" depart="365.00" from="319271631#0" to="-24329815#6"/>
    <trip id="366" depart="366.00" from="146307383#39" to="-553567942#0"/>
    <trip id="367" depart="367.00" from="194962517#1" to="-435324241"/>
    <trip id="368" depart="368.00" from="235507047#1" to="-582885102#6"/>
    <trip id="369" depart="369.00" from="476207958#7" to="-112753669#0"/>
    <trip id="370" depart="370.00" from="24100128#6" to="17421468#5"/>
    <trip id="371" depart="371.00" from="24088173#5" to="24107358#1"/>
    <trip id="372" depart="372.00" from="-34854468#9" to="24087776#8"/>
    <trip id="373" depart="373.00" from="-24089782#9" to="24080199#0"/>
    <trip id="374" depart="374.00" from="24086770#3" to="539160798"/>
    <trip id="375" depart="375.00" from="24082012#1" to="-435368617"/>
    <trip id="376" depart="376.00" from="78088772#0" to="-377933052#8"/>
    <trip id="377" depart="377.00" from="428583938" to="-468016720#0"/>
    <trip id="378" depart="378.00" from="24076800#0" to="24116910#0"/>
    <trip id="379" depart="379.00" from="24102031#0" to="-230370473#3"/>
    <trip id="380" depart="380.00" from="566256029" to="-24077518#2"/>
    <trip id="381" depart="381.00" from="-493144597#4" to="641710622#0"/>
    <trip id="382" depart="382.00" from="43541361#2" to="32704251#21"/>
    <trip id="383" depart="383.00" from="-24109342#2" to="-433278683#2"/>
    <trip id="384" depart="384.00" from="-24114047#11" to="-97295231#3"/>
    <trip id="385" depart="385.00" from="-372785615#2" to="-163148231#4"/>
    <trip id="386" depart="386.00" from="173398092#8" to="-24088891#13"/>
    <trip id="387" depart="387.00" from="-24081876#2" to="-435674555"/>
    <trip id="388" depart="388.00" from="430807775#27" to="435359945#1"/>
    <trip id="389" depart="389.00" from="-24075555#3" to="210205666#7"/>
    <trip id="390" depart="390.00" from="-485427089#0" to="24100873#1"/>
    <trip id="391" depart="391.00" from="-24103176#0" to="-435328923"/>
    <trip id="392" depart="392.00" from="221397675#6" to="-428607716#0"/>
    <trip id="393" depart="393.00" from="-435343909" to="-24106118#2"/>
    <trip id="394" depart="394.00" from="252495503#1" to="24081855#1"/>
    <trip id="395" depart="395.00" from="-43268484#1" to="117007061#5"/>
    <trip id="396" depart="396.00" from="38744128#4" to="-224810391#17"/>
    <trip id="397" depart="397.00" from="-545766325#4" to="-17424133#3"/>
    <trip id="398" depart="398.00" from="208530843#4" to="24079858#1"/>
    <trip id="399" depart="399.00" from="24083438#7" to="-24094836#1"/>
    <trip id="400" depart="400.00" from="24082444#2" to="24089023#16"/>
    <trip id="401" depart="401.00" from="-24087072#4" to="-317625746#2"/>
    <trip id="402" depart="402.00" from="660407566#0" to="-435553727#1"/>
    <trip id="403" depart="403.00" from="-22092517" to="131608025#0"/>
    <trip id="404" depart="404.00" from="24084114#30" to="27038051#3"/>
    <trip id="405" depart="405.00" from="17426436#0" to="24070648#1"/>
    <trip id="406" depart="406.00" from="17421493#0" to="-620485153#7"/>
    <trip id="407" depart="407.00" from="-24086804#7" to="-24077068"/>
    <trip id="408" depart="408.00" from="24078259#12" to="638938855#2"/>
    <trip id="409" depart="409.00" from="585186663#11" to="-24076963#0"/>
    <trip id="410" depart="410.00" from="277929689#8" to="-24102089#3"/>