<?xml version="1.0" encoding="UTF-8"?>

<!-- generated on Qui 16 Mai 2019 12:58:13 -03 by Eclipse SUMO netedit Version 1.2.0
<configuration xmlns:xsi="http://www.w3.org/2001/XMLSchema-instance" xsi:noNamespaceSchemaLocation="http://sumo.dlr.de/xsd/netconvertConfiguration.xsd">

    <input>
        <sumo-net-file value="/home/lucaszl/Downloads/chicago_simple.net.xml"/>
    </input>

    <output>
        <output-file value="/home/lucaszl/Downloads/chicago_simple.net.xml"/>
    </output>

    <processing>
        <geometry.max-grade.fix value="false"/>
        <offset.disable-normalization value="true"/>
        <lefthand value="false"/>
    </processing>

    <junctions>
        <no-turnarounds value="true"/>
        <junctions.corner-detail value="5"/>
        <junctions.limit-turn-speed value="5.5"/>
        <rectangular-lane-cut value="false"/>
    </junctions>

    <pedestrian>
        <walkingareas value="false"/>
    </pedestrian>

</configuration>
-->

<net version="1.1" junctionCornerDetail="5" limitTurnSpeed="5.50" xmlns:xsi="http://www.w3.org/2001/XMLSchema-instance" xsi:noNamespaceSchemaLocation="http://sumo.dlr.de/xsd/net_file.xsd">

    <location netOffset="-432109.85,-4637557.56" convBoundary="1600.13,484.08,2580.10,2426.26" origBoundary="-87.818488,41.887201,-87.775245,41.909084" projParameter="+proj=utm +zone=16 +ellps=WGS84 +datum=WGS84 +units=m +no_defs"/>

    <type id="highway.bridleway" priority="1" numLanes="1" speed="2.78" allow="pedestrian" oneway="1" width="2.00"/>
    <type id="highway.bus_guideway" priority="1" numLanes="1" speed="27.78" allow="bus" oneway="1"/>
    <type id="highway.cycleway" priority="1" numLanes="1" speed="8.33" allow="bicycle" oneway="0" width="1.00"/>
    <type id="highway.footway" priority="1" numLanes="1" speed="2.78" allow="pedestrian" oneway="1" width="2.00"/>
    <type id="highway.ford" priority="1" numLanes="1" speed="2.78" allow="army" oneway="0"/>
    <type id="highway.living_street" priority="2" numLanes="1" speed="2.78" disallow="tram rail_urban rail rail_electric ship" oneway="0"/>
    <type id="highway.motorway" priority="14" numLanes="2" speed="39.44" allow="private emergency authority army vip passenger hov taxi bus coach delivery truck trailer motorcycle evehicle custom1 custom2" oneway="1"/>
    <type id="highway.motorway_link" priority="9" numLanes="1" speed="22.22" allow="private emergency authority army vip passenger hov taxi bus coach delivery truck trailer motorcycle evehicle custom1 custom2" oneway="1"/>
    <type id="highway.path" priority="1" numLanes="1" speed="2.78" allow="bicycle pedestrian" oneway="1" width="2.00"/>
    <type id="highway.pedestrian" priority="1" numLanes="1" speed="2.78" allow="pedestrian" oneway="1" width="2.00"/>
    <type id="highway.primary" priority="12" numLanes="2" speed="27.78" disallow="tram rail_urban rail rail_electric ship" oneway="0"/>
    <type id="highway.primary_link" priority="7" numLanes="1" speed="22.22" disallow="tram rail_urban rail rail_electric ship" oneway="0"/>
    <type id="highway.raceway" priority="15" numLanes="2" speed="83.33" allow="vip" oneway="0"/>
    <type id="highway.residential" priority="3" numLanes="1" speed="13.89" disallow="tram rail_urban rail rail_electric ship" oneway="0"/>
    <type id="highway.secondary" priority="11" numLanes="2" speed="27.78" disallow="tram rail_urban rail rail_electric ship" oneway="0"/>
    <type id="highway.secondary_link" priority="6" numLanes="1" speed="22.22" disallow="tram rail_urban rail rail_electric ship" oneway="0"/>
    <type id="highway.service" priority="1" numLanes="1" speed="5.56" allow="delivery bicycle pedestrian" oneway="0"/>
    <type id="highway.stairs" priority="1" numLanes="1" speed="1.39" allow="pedestrian" oneway="1" width="2.00"/>
    <type id="highway.step" priority="1" numLanes="1" speed="1.39" allow="pedestrian" oneway="1" width="2.00"/>
    <type id="highway.steps" priority="1" numLanes="1" speed="1.39" allow="pedestrian" oneway="1" width="2.00"/>
    <type id="highway.tertiary" priority="10" numLanes="1" speed="22.22" disallow="tram rail_urban rail rail_electric ship" oneway="0"/>
    <type id="highway.tertiary_link" priority="5" numLanes="1" speed="22.22" disallow="tram rail_urban rail rail_electric ship" oneway="0"/>
    <type id="highway.track" priority="1" numLanes="1" speed="5.56" disallow="tram rail_urban rail rail_electric ship" oneway="0"/>
    <type id="highway.trunk" priority="13" numLanes="2" speed="27.78" disallow="tram rail_urban rail rail_electric bicycle pedestrian ship" oneway="0"/>
    <type id="highway.trunk_link" priority="8" numLanes="1" speed="22.22" disallow="tram rail_urban rail rail_electric bicycle pedestrian ship" oneway="0"/>
    <type id="highway.unclassified" priority="4" numLanes="1" speed="13.89" disallow="tram rail_urban rail rail_electric ship" oneway="0"/>
    <type id="highway.unsurfaced" priority="1" numLanes="1" speed="8.33" disallow="tram rail_urban rail rail_electric ship" oneway="0"/>
    <type id="railway.light_rail" priority="19" numLanes="1" speed="27.78" allow="rail_urban" oneway="1"/>
    <type id="railway.preserved" priority="16" numLanes="1" speed="27.78" allow="rail" oneway="1"/>
    <type id="railway.rail" priority="20" numLanes="1" speed="83.33" allow="rail rail_electric" oneway="1"/>
    <type id="railway.subway" priority="18" numLanes="1" speed="27.78" allow="rail_urban" oneway="1"/>
    <type id="railway.tram" priority="17" numLanes="1" speed="13.89" allow="tram" oneway="1"/>

    <edge id=":1864349011_0" function="internal">
        <lane id=":1864349011_0_0" index="0" disallow="tram rail_urban rail rail_electric ship" speed="13.89" length="0.75" shape="1699.98,2356.38 1699.77,2356.46 1699.63,2356.50 1699.47,2356.50 1699.25,2356.49"/>
    </edge>
    <edge id=":261115512_0" function="internal">
        <lane id=":261115512_0_0" index="0" disallow="tram rail_urban rail rail_electric ship" speed="3.65" length="4.67" shape="2514.00,489.79 2514.82,488.60 2515.62,488.21 2516.42,488.62 2517.20,489.83"/>
    </edge>
    <edge id=":261115513_0" function="internal">
        <lane id=":261115513_0_0" index="0" disallow="tram rail_urban rail rail_electric ship" speed="6.51" length="9.03" shape="2520.75,644.23 2518.30,644.55 2516.54,645.58 2515.47,647.31 2515.09,649.76"/>
    </edge>
    <edge id=":261115513_1" function="internal">
        <lane id=":261115513_1_0" index="0" disallow="tram rail_urban rail rail_electric ship" speed="13.89" length="14.40" shape="2520.75,644.23 2506.35,644.05"/>
    </edge>
    <edge id=":261115513_2" function="internal">
        <lane id=":261115513_2_0" index="0" disallow="tram rail_urban rail rail_electric ship" speed="8.00" length="5.93" shape="2520.75,644.23 2516.91,643.63 2515.17,642.56"/>
    </edge>
    <edge id=":261115513_3" function="internal">
        <lane id=":261115513_3_0" index="0" disallow="tram rail_urban rail rail_electric ship" speed="3.65" length="2.34" shape="2520.75,644.23 2519.56,643.41 2519.17,642.61"/>
    </edge>
    <edge id=":261115513_16" function="internal">
        <lane id=":261115513_16_0" index="0" disallow="tram rail_urban rail rail_electric ship" speed="8.00" length="8.27" shape="2515.17,642.56 2514.18,641.95 2512.57,639.17 2512.07,635.32"/>
    </edge>
    <edge id=":261115513_17" function="internal">
        <lane id=":261115513_17_0" index="0" disallow="tram rail_urban rail rail_electric ship" speed="3.65" length="2.34" shape="2519.17,642.61 2519.58,641.81 2520.79,641.03"/>
    </edge>
    <edge id=":261115513_4" function="internal">
        <lane id=":261115513_4_0" index="0" disallow="tram rail_urban rail rail_electric ship" speed="6.50" length="9.03" shape="2515.27,635.36 2515.58,637.81 2516.61,639.58 2518.35,640.65 2520.79,641.03"/>
    </edge>
    <edge id=":261115513_5" function="internal">
        <lane id=":261115513_5_0" index="0" disallow="tram rail_urban rail rail_electric ship" speed="13.89" length="14.40" shape="2515.27,635.36 2515.09,649.76"/>
    </edge>
    <edge id=":261115513_6" function="internal">
        <lane id=":261115513_6_0" index="0" disallow="tram rail_urban rail rail_electric ship" speed="8.01" length="14.20" shape="2515.27,635.36 2514.66,639.20 2512.98,641.93 2510.21,643.55 2506.35,644.05"/>
    </edge>
    <edge id=":261115513_7" function="internal">
        <lane id=":261115513_7_0" index="0" disallow="tram rail_urban rail rail_electric ship" speed="3.65" length="4.67" shape="2515.27,635.36 2514.45,636.55 2513.64,636.94 2512.85,636.53 2512.07,635.32"/>
    </edge>
    <edge id=":261115513_8" function="internal">
        <lane id=":261115513_8_0" index="0" disallow="tram rail_urban rail rail_electric ship" speed="6.51" length="9.04" shape="2506.39,640.85 2508.85,640.53 2510.61,639.50 2511.68,637.76 2512.07,635.32"/>
    </edge>
    <edge id=":261115513_9" function="internal">
        <lane id=":261115513_9_0" index="0" disallow="tram rail_urban rail rail_electric ship" speed="13.89" length="14.40" shape="2506.39,640.85 2520.79,641.03"/>
    </edge>
    <edge id=":261115513_10" function="internal">
        <lane id=":261115513_10_0" index="0" disallow="tram rail_urban rail rail_electric ship" speed="8.00" length="5.93" shape="2506.39,640.85 2510.23,641.45 2511.97,642.52"/>
    </edge>
    <edge id=":261115513_11" function="internal">
        <lane id=":261115513_11_0" index="0" disallow="tram rail_urban rail rail_electric ship" speed="3.65" length="2.34" shape="2506.39,640.85 2507.58,641.67 2507.97,642.47"/>
    </edge>
    <edge id=":261115513_18" function="internal">
        <lane id=":261115513_18_0" index="0" disallow="tram rail_urban rail rail_electric ship" speed="8.00" length="8.26" shape="2511.97,642.52 2512.96,643.13 2514.58,645.90 2515.09,649.76"/>
    </edge>
    <edge id=":261115513_19" function="internal">
        <lane id=":261115513_19_0" index="0" disallow="tram rail_urban rail rail_electric ship" speed="3.65" length="2.34" shape="2507.97,642.47 2507.56,643.27 2506.35,644.05"/>
    </edge>
    <edge id=":261115513_12" function="internal">
        <lane id=":261115513_12_0" index="0" disallow="tram rail_urban rail rail_electric ship" speed="6.51" length="9.04" shape="2511.89,649.72 2511.57,647.27 2510.54,645.50 2508.80,644.43 2506.35,644.05"/>
    </edge>
    <edge id=":261115513_13" function="internal">
        <lane id=":261115513_13_0" index="0" disallow="tram rail_urban rail rail_electric ship" speed="13.89" length="14.41" shape="2511.89,649.72 2512.07,635.32"/>
    </edge>
    <edge id=":261115513_14" function="internal">
        <lane id=":261115513_14_0" index="0" disallow="tram rail_urban rail rail_electric ship" speed="8.00" length="14.20" shape="2511.89,649.72 2512.48,645.88 2514.16,643.15 2516.93,641.53 2520.79,641.03"/>
    </edge>
    <edge id=":261115513_15" function="internal">
        <lane id=":261115513_15_0" index="0" disallow="tram rail_urban rail rail_electric ship" speed="3.65" length="4.67" shape="2511.89,649.72 2512.70,648.53 2513.51,648.14 2514.30,648.55 2515.09,649.76"/>
    </edge>
    <edge id=":261115514_0" function="internal">
        <lane id=":261115514_0_0" index="0" disallow="tram rail_urban rail rail_electric ship" speed="6.53" length="9.07" shape="2518.91,808.34 2516.45,808.66 2514.68,809.70 2513.60,811.44 2513.21,813.89"/>
    </edge>
    <edge id=":261115514_1" function="internal">
        <lane id=":261115514_1_0" index="0" disallow="tram rail_urban rail rail_electric ship" speed="11.18" length="14.43" shape="2518.91,808.34 2504.49,808.14"/>
    </edge>
    <edge id=":261115514_2" function="internal">
        <lane id=":261115514_2_0" index="0" disallow="tram rail_urban rail rail_electric ship" speed="8.00" length="5.95" shape="2518.91,808.34 2515.07,807.74 2513.31,806.66"/>
    </edge>
    <edge id=":261115514_3" function="internal">
        <lane id=":261115514_3_0" index="0" disallow="tram rail_urban rail rail_electric ship" speed="3.65" length="2.34" shape="2518.91,808.34 2517.72,807.52 2517.33,806.72"/>
    </edge>
    <edge id=":261115514_16" function="internal">
        <lane id=":261115514_16_0" index="0" disallow="tram rail_urban rail rail_electric ship" speed="8.00" length="8.25" shape="2513.31,806.66 2512.34,806.06 2510.72,803.29 2510.21,799.43"/>
    </edge>
    <edge id=":261115514_17" function="internal">
        <lane id=":261115514_17_0" index="0" disallow="tram rail_urban rail rail_electric ship" speed="3.65" length="2.34" shape="2517.33,806.72 2517.74,805.92 2518.95,805.14"/>
    </edge>
    <edge id=":261115514_4" function="internal">
        <lane id=":261115514_4_0" index="0" disallow="tram rail_urban rail rail_electric ship" speed="6.51" length="9.04" shape="2513.41,799.46 2513.73,801.92 2514.76,803.69 2516.50,804.76 2518.95,805.14"/>
    </edge>
    <edge id=":261115514_5" function="internal">
        <lane id=":261115514_5_0" index="0" disallow="tram rail_urban rail rail_electric ship" speed="13.89" length="14.43" shape="2513.41,799.46 2513.21,813.89"/>
    </edge>
    <edge id=":261115514_6" function="internal">
        <lane id=":261115514_6_0" index="0" disallow="tram rail_urban rail rail_electric ship" speed="7.99" length="14.21" shape="2513.41,799.46 2512.82,803.31 2511.13,806.04 2508.35,807.65 2504.49,808.14"/>
    </edge>
    <edge id=":261115514_7" function="internal">
        <lane id=":261115514_7_0" index="0" disallow="tram rail_urban rail rail_electric ship" speed="3.65" length="4.67" shape="2513.41,799.46 2512.60,800.65 2511.79,801.04 2511.00,800.63 2510.21,799.43"/>
    </edge>
    <edge id=":261115514_8" function="internal">
        <lane id=":261115514_8_0" index="0" disallow="tram rail_urban rail rail_electric ship" speed="6.50" length="9.03" shape="2504.54,804.94 2507.00,804.63 2508.76,803.61 2509.83,801.87 2510.21,799.43"/>
    </edge>
    <edge id=":261115514_9" function="internal">
        <lane id=":261115514_9_0" index="0" disallow="tram rail_urban rail rail_electric ship" speed="11.18" length="14.41" shape="2504.54,804.94 2518.95,805.14"/>
    </edge>
    <edge id=":261115514_10" function="internal">
        <lane id=":261115514_10_0" index="0" disallow="tram rail_urban rail rail_electric ship" speed="8.00" length="5.91" shape="2504.54,804.94 2508.39,805.56 2510.10,806.62"/>
    </edge>
    <edge id=":261115514_11" function="internal">
        <lane id=":261115514_11_0" index="0" disallow="tram rail_urban rail rail_electric ship" speed="3.65" length="2.34" shape="2504.54,804.94 2505.73,805.76 2506.11,806.57"/>
    </edge>
    <edge id=":261115514_18" function="internal">
        <lane id=":261115514_18_0" index="0" disallow="tram rail_urban rail rail_electric ship" speed="8.00" length="8.30" shape="2510.10,806.62 2511.12,807.25 2512.72,810.03 2513.21,813.89"/>
    </edge>
    <edge id=":261115514_19" function="internal">
        <lane id=":261115514_19_0" index="0" disallow="tram rail_urban rail rail_electric ship" speed="3.65" length="2.34" shape="2506.11,806.57 2505.70,807.36 2504.49,808.14"/>
    </edge>
    <edge id=":261115514_12" function="internal">
        <lane id=":261115514_12_0" index="0" disallow="tram rail_urban rail rail_electric ship" speed="6.51" length="9.04" shape="2510.01,813.83 2509.70,811.38 2508.67,809.61 2506.94,808.53 2504.49,808.14"/>
    </edge>
    <edge id=":261115514_13" function="internal">
        <lane id=":261115514_13_0" index="0" disallow="tram rail_urban rail rail_electric ship" speed="13.89" length="14.41" shape="2510.01,813.83 2510.21,799.43"/>
    </edge>
    <edge id=":261115514_14" function="internal">
        <lane id=":261115514_14_0" index="0" disallow="tram rail_urban rail rail_electric ship" speed="8.02" length="14.20" shape="2510.01,813.83 2510.62,809.99 2512.32,807.26 2515.09,805.65 2518.95,805.14"/>
    </edge>
    <edge id=":261115514_15" function="internal">
        <lane id=":261115514_15_0" index="0" disallow="tram rail_urban rail rail_electric ship" speed="3.65" length="4.67" shape="2510.01,813.83 2510.83,812.65 2511.63,812.26 2512.43,812.68 2513.21,813.89"/>
    </edge>
    <edge id=":261135046_0" function="internal">
        <lane id=":261135046_0_0" index="0" disallow="tram rail_urban rail rail_electric ship" speed="6.50" length="9.03" shape="1840.99,1813.00 1838.54,1813.32 1836.78,1814.35 1835.71,1816.09 1835.34,1818.54"/>
    </edge>
    <edge id=":261135046_1" function="internal">
        <lane id=":261135046_1_0" index="0" disallow="tram rail_urban rail rail_electric ship" speed="13.89" length="14.40" shape="1840.99,1813.00 1826.59,1812.84"/>
    </edge>
    <edge id=":261135046_2" function="internal">
        <lane id=":261135046_2_0" index="0" disallow="tram rail_urban rail rail_electric ship" speed="8.00" length="5.93" shape="1840.99,1813.00 1837.14,1812.40 1835.41,1811.34"/>
    </edge>
    <edge id=":261135046_3" function="internal">
        <lane id=":261135046_3_0" index="0" disallow="tram rail_urban rail rail_electric ship" speed="3.65" length="2.34" shape="1840.99,1813.00 1839.80,1812.18 1839.41,1811.38"/>
    </edge>
    <edge id=":261135046_16" function="internal">
        <lane id=":261135046_16_0" index="0" disallow="tram rail_urban rail rail_electric ship" speed="8.00" length="8.27" shape="1835.41,1811.34 1834.41,1810.72 1832.80,1807.95 1832.30,1804.09"/>
    </edge>
    <edge id=":261135046_17" function="internal">
        <lane id=":261135046_17_0" index="0" disallow="tram rail_urban rail rail_electric ship" speed="3.65" length="2.34" shape="1839.41,1811.38 1839.82,1810.58 1841.03,1809.80"/>
    </edge>
    <edge id=":261135046_4" function="internal">
        <lane id=":261135046_4_0" index="0" disallow="tram rail_urban rail rail_electric ship" speed="6.50" length="9.03" shape="1835.50,1804.13 1835.82,1806.59 1836.84,1808.35 1838.58,1809.42 1841.03,1809.80"/>
    </edge>
    <edge id=":261135046_5" function="internal">
        <lane id=":261135046_5_0" index="0" disallow="tram rail_urban rail rail_electric ship" speed="13.89" length="14.41" shape="1835.50,1804.13 1835.34,1818.54"/>
    </edge>
    <edge id=":261135046_6" function="internal">
        <lane id=":261135046_6_0" index="0" disallow="tram rail_urban rail rail_electric ship" speed="8.01" length="14.20" shape="1835.50,1804.13 1834.90,1807.98 1833.21,1810.71 1830.44,1812.33 1826.59,1812.84"/>
    </edge>
    <edge id=":261135046_7" function="internal">
        <lane id=":261135046_7_0" index="0" disallow="tram rail_urban rail rail_electric ship" speed="3.65" length="4.67" shape="1835.50,1804.13 1834.68,1805.32 1833.88,1805.71 1833.08,1805.30 1832.30,1804.09"/>
    </edge>
    <edge id=":261135046_8" function="internal">
        <lane id=":261135046_8_0" index="0" disallow="tram rail_urban rail rail_electric ship" speed="6.52" length="9.05" shape="1826.62,1809.65 1829.08,1809.32 1830.84,1808.29 1831.92,1806.54 1832.30,1804.09"/>
    </edge>
    <edge id=":261135046_9" function="internal">
        <lane id=":261135046_9_0" index="0" disallow="tram rail_urban rail rail_electric ship" speed="13.89" length="14.40" shape="1826.62,1809.65 1841.03,1809.80"/>
    </edge>
    <edge id=":261135046_10" function="internal">
        <lane id=":261135046_10_0" index="0" disallow="tram rail_urban rail rail_electric ship" speed="8.01" length="5.93" shape="1826.62,1809.65 1830.46,1810.24 1832.20,1811.30"/>
    </edge>
    <edge id=":261135046_11" function="internal">
        <lane id=":261135046_11_0" index="0" disallow="tram rail_urban rail rail_electric ship" speed="3.65" length="2.34" shape="1826.62,1809.65 1827.82,1810.46 1828.21,1811.26"/>
    </edge>
    <edge id=":261135046_18" function="internal">
        <lane id=":261135046_18_0" index="0" disallow="tram rail_urban rail rail_electric ship" speed="8.01" length="8.27" shape="1832.20,1811.30 1833.20,1811.91 1834.82,1814.68 1835.34,1818.54"/>
    </edge>
    <edge id=":261135046_19" function="internal">
        <lane id=":261135046_19_0" index="0" disallow="tram rail_urban rail rail_electric ship" speed="3.65" length="2.34" shape="1828.21,1811.26 1827.80,1812.06 1826.59,1812.84"/>
    </edge>
    <edge id=":261135046_12" function="internal">
        <lane id=":261135046_12_0" index="0" disallow="tram rail_urban rail rail_electric ship" speed="6.52" length="9.04" shape="1832.14,1818.51 1831.81,1816.06 1830.78,1814.29 1829.04,1813.22 1826.59,1812.84"/>
    </edge>
    <edge id=":261135046_13" function="internal">
        <lane id=":261135046_13_0" index="0" disallow="tram rail_urban rail rail_electric ship" speed="13.89" length="14.43" shape="1832.14,1818.51 1832.30,1804.09"/>
    </edge>
    <edge id=":261135046_14" function="internal">
        <lane id=":261135046_14_0" index="0" disallow="tram rail_urban rail rail_electric ship" speed="8.00" length="14.20" shape="1832.14,1818.51 1832.72,1814.67 1834.40,1811.93 1837.17,1810.31 1841.03,1809.80"/>
    </edge>
    <edge id=":261135046_15" function="internal">
        <lane id=":261135046_15_0" index="0" disallow="tram rail_urban rail rail_electric ship" speed="3.65" length="4.67" shape="1832.14,1818.51 1832.95,1817.32 1833.75,1816.93 1834.55,1817.33 1835.34,1818.54"/>
    </edge>
    <edge id=":261135063_0" function="internal">
        <lane id=":261135063_0_0" index="0" disallow="tram rail_urban rail rail_electric ship" speed="11.90" length="16.96" shape="2499.06,1832.01 2494.83,1832.41 2491.00,1833.78 2487.56,1836.12 2484.51,1839.42"/>
    </edge>
    <edge id=":261135063_1" function="internal">
        <lane id=":261135063_1_0" index="0" disallow="tram rail_urban rail rail_electric ship" speed="13.89" length="19.95" shape="2499.06,1832.01 2479.11,1831.67"/>
    </edge>
    <edge id=":261135063_2" function="internal">
        <lane id=":261135063_2_0" index="0" disallow="tram rail_urban rail rail_electric ship" speed="7.40" length="6.67" shape="2499.06,1832.01 2494.00,1831.25 2492.77,1830.30"/>
    </edge>
    <edge id=":261135063_3" function="internal">
        <lane id=":261135063_3_0" index="0" disallow="tram rail_urban rail rail_electric ship" speed="3.65" length="2.34" shape="2499.06,1832.01 2497.87,1831.19 2497.48,1830.38"/>
    </edge>
    <edge id=":261135063_16" function="internal">
        <lane id=":261135063_16_0" index="0" disallow="tram rail_urban rail rail_electric ship" speed="7.40" length="10.27" shape="2492.77,1830.30 2491.34,1829.20 2491.07,1825.85 2493.19,1821.20"/>
    </edge>
    <edge id=":261135063_17" function="internal">
        <lane id=":261135063_17_0" index="0" disallow="tram rail_urban rail rail_electric ship" speed="3.65" length="2.34" shape="2497.48,1830.38 2497.90,1829.59 2499.11,1828.81"/>
    </edge>
    <edge id=":261135063_4" function="internal">
        <lane id=":261135063_4_0" index="0" disallow="tram rail_urban rail rail_electric ship" speed="5.65" length="9.26" shape="2495.91,1822.90 2494.75,1825.44 2494.89,1827.27 2496.35,1828.39 2499.11,1828.81"/>
    </edge>
    <edge id=":261135063_5" function="internal">
        <lane id=":261135063_5_0" index="0" disallow="tram rail_urban rail rail_electric ship" speed="13.89" length="20.07" shape="2495.91,1822.90 2484.51,1839.42"/>
    </edge>
    <edge id=":261135063_6" function="internal">
        <lane id=":261135063_6_0" index="0" disallow="tram rail_urban rail rail_electric ship" speed="12.02" length="19.51" shape="2495.91,1822.90 2492.88,1826.17 2488.55,1829.00 2483.70,1830.97 2479.11,1831.67"/>
    </edge>
    <edge id=":261135063_7" function="internal">
        <lane id=":261135063_7_0" index="0" disallow="tram rail_urban rail rail_electric ship" speed="3.65" length="4.67" shape="2495.91,1822.90 2494.59,1823.49 2493.70,1823.41 2493.23,1822.64 2493.19,1821.20"/>
    </edge>
    <edge id=":261135063_8" function="internal">
        <lane id=":261135063_8_0" index="0" disallow="tram rail_urban rail rail_electric ship" speed="11.10" length="16.56" shape="2479.16,1828.47 2483.56,1828.07 2487.36,1826.73 2490.57,1824.44 2493.19,1821.20"/>
    </edge>
    <edge id=":261135063_9" function="internal">
        <lane id=":261135063_9_0" index="0" disallow="tram rail_urban rail rail_electric ship" speed="13.89" length="19.95" shape="2479.16,1828.47 2499.11,1828.81"/>
    </edge>
    <edge id=":261135063_10" function="internal">
        <lane id=":261135063_10_0" index="0" disallow="tram rail_urban rail rail_electric ship" speed="7.38" length="6.96" shape="2479.16,1828.47 2484.53,1829.24 2485.75,1830.18"/>
    </edge>
    <edge id=":261135063_11" function="internal">
        <lane id=":261135063_11_0" index="0" disallow="tram rail_urban rail rail_electric ship" speed="3.65" length="2.34" shape="2479.16,1828.47 2480.35,1829.29 2480.74,1830.09"/>
    </edge>
    <edge id=":261135063_18" function="internal">
        <lane id=":261135063_18_0" index="0" disallow="tram rail_urban rail rail_electric ship" speed="7.38" length="10.67" shape="2485.75,1830.18 2487.21,1831.32 2487.21,1834.71 2484.51,1839.42"/>
    </edge>
    <edge id=":261135063_19" function="internal">
        <lane id=":261135063_19_0" index="0" disallow="tram rail_urban rail rail_electric ship" speed="3.65" length="2.34" shape="2480.74,1830.09 2480.32,1830.89 2479.11,1831.67"/>
    </edge>
    <edge id=":261135063_12" function="internal">
        <lane id=":261135063_12_0" index="0" disallow="tram rail_urban rail rail_electric ship" speed="5.57" length="9.38" shape="2481.95,1837.49 2483.39,1834.99 2483.39,1833.18 2481.97,1832.08 2479.11,1831.67"/>
    </edge>
    <edge id=":261135063_13" function="internal">
        <lane id=":261135063_13_0" index="0" disallow="tram rail_urban rail rail_electric ship" speed="13.89" length="19.79" shape="2481.95,1837.49 2493.19,1821.20"/>
    </edge>
    <edge id=":261135063_14" function="internal">
        <lane id=":261135063_14_0" index="0" disallow="tram rail_urban rail rail_electric ship" speed="12.79" length="19.69" shape="2481.95,1837.49 2485.31,1834.25 2489.82,1831.45 2494.69,1829.50 2499.11,1828.81"/>
    </edge>
    <edge id=":261135063_15" function="internal">
        <lane id=":261135063_15_0" index="0" disallow="tram rail_urban rail rail_electric ship" speed="3.65" length="4.67" shape="2481.95,1837.49 2483.32,1837.01 2484.19,1837.18 2484.59,1837.98 2484.51,1839.42"/>
    </edge>
    <edge id=":261135064_0" function="internal">
        <lane id=":261135064_0_0" index="0" disallow="tram rail_urban rail rail_electric ship" speed="6.50" length="9.03" shape="2368.77,1829.81 2366.31,1830.12 2364.55,1831.14 2363.48,1832.88 2363.10,1835.33"/>
    </edge>
    <edge id=":261135064_1" function="internal">
        <lane id=":261135064_1_0" index="0" disallow="tram rail_urban rail rail_electric ship" speed="13.89" length="14.41" shape="2368.77,1829.81 2354.36,1829.62"/>
    </edge>
    <edge id=":261135064_2" function="internal">
        <lane id=":261135064_2_0" index="0" disallow="tram rail_urban rail rail_electric ship" speed="8.01" length="14.20" shape="2368.77,1829.81 2364.92,1829.20 2362.19,1827.50 2360.58,1824.73 2360.09,1820.87"/>
    </edge>
    <edge id=":261135064_3" function="internal">
        <lane id=":261135064_3_0" index="0" disallow="tram rail_urban rail rail_electric ship" speed="3.65" length="4.67" shape="2368.77,1829.81 2367.58,1828.99 2367.20,1828.19 2367.61,1827.39 2368.82,1826.61"/>
    </edge>
    <edge id=":261135064_4" function="internal">
        <lane id=":261135064_4_0" index="0" disallow="tram rail_urban rail rail_electric ship" speed="6.52" length="9.05" shape="2363.29,1820.92 2363.60,1823.38 2364.63,1825.14 2366.37,1826.22 2368.82,1826.61"/>
    </edge>
    <edge id=":261135064_5" function="internal">
        <lane id=":261135064_5_0" index="0" disallow="tram rail_urban rail rail_electric ship" speed="13.89" length="14.41" shape="2363.29,1820.92 2363.10,1835.33"/>
    </edge>
    <edge id=":261135064_6" function="internal">
        <lane id=":261135064_6_0" index="0" disallow="tram rail_urban rail rail_electric ship" speed="8.02" length="5.91" shape="2363.29,1820.92 2362.68,1824.76 2361.61,1826.48"/>
    </edge>
    <edge id=":261135064_7" function="internal">
        <lane id=":261135064_7_0" index="0" disallow="tram rail_urban rail rail_electric ship" speed="3.65" length="2.34" shape="2363.29,1820.92 2362.47,1822.11 2361.66,1822.50"/>
    </edge>
    <edge id=":261135064_16" function="internal">
        <lane id=":261135064_16_0" index="0" disallow="tram rail_urban rail rail_electric ship" speed="8.02" length="8.29" shape="2361.61,1826.48 2360.99,1827.49 2358.22,1829.11 2354.36,1829.62"/>
    </edge>
    <edge id=":261135064_17" function="internal">
        <lane id=":261135064_17_0" index="0" disallow="tram rail_urban rail rail_electric ship" speed="3.65" length="2.34" shape="2361.66,1822.50 2360.87,1822.09 2360.09,1820.87"/>
    </edge>
    <edge id=":261135064_8" function="internal">
        <lane id=":261135064_8_0" index="0" disallow="tram rail_urban rail rail_electric ship" speed="6.53" length="9.06" shape="2354.39,1826.42 2356.85,1826.10 2358.62,1825.06 2359.70,1823.32 2360.09,1820.87"/>
    </edge>
    <edge id=":261135064_9" function="internal">
        <lane id=":261135064_9_0" index="0" disallow="tram rail_urban rail rail_electric ship" speed="13.89" length="14.44" shape="2354.39,1826.42 2368.82,1826.61"/>
    </edge>
    <edge id=":261135064_10" function="internal">
        <lane id=":261135064_10_0" index="0" disallow="tram rail_urban rail rail_electric ship" speed="8.00" length="14.21" shape="2354.39,1826.42 2358.24,1827.01 2360.97,1828.69 2362.59,1831.46 2363.10,1835.33"/>
    </edge>
    <edge id=":261135064_11" function="internal">
        <lane id=":261135064_11_0" index="0" disallow="tram rail_urban rail rail_electric ship" speed="3.65" length="4.67" shape="2354.39,1826.42 2355.58,1827.23 2355.97,1828.04 2355.57,1828.83 2354.36,1829.62"/>
    </edge>
    <edge id=":261135064_12" function="internal">