<?xml version="1.0" encoding="UTF-8"?>

<!-- generated on Qui 16 Mai 2019 16:17:17 -03 by Eclipse SUMO netedit Version 1.2.0
<configuration xmlns:xsi="http://www.w3.org/2001/XMLSchema-instance" xsi:noNamespaceSchemaLocation="http://sumo.dlr.de/xsd/netconvertConfiguration.xsd">

    <input>
        <sumo-net-file value="/home/lucaszl/Downloads/over_simple.net.xml"/>
    </input>

    <output>
        <output-file value="/home/lucaszl/Downloads/over_simple.net.xml"/>
    </output>

    <processing>
        <geometry.max-grade.fix value="false"/>
        <offset.disable-normalization value="true"/>
        <lefthand value="false"/>
    </processing>

    <junctions>
        <no-turnarounds value="true"/>
        <junctions.corner-detail value="5"/>
        <junctions.limit-turn-speed value="5.5"/>
        <rectangular-lane-cut value="false"/>
    </junctions>

    <pedestrian>
        <walkingareas value="false"/>
    </pedestrian>

</configuration>
-->

<net version="1.1" junctionCornerDetail="5" limitTurnSpeed="5.50" xmlns:xsi="http://www.w3.org/2001/XMLSchema-instance" xsi:noNamespaceSchemaLocation="http://sumo.dlr.de/xsd/net_file.xsd">

    <location netOffset="-432109.85,-4637557.56" convBoundary="1771.50,1390.43,2568.91,1618.16" origBoundary="-87.818488,41.887201,-87.775245,41.909084" projParameter="+proj=utm +zone=16 +ellps=WGS84 +datum=WGS84 +units=m +no_defs"/>

    <type id="highway.bridleway" priority="1" numLanes="1" speed="2.78" allow="pedestrian" oneway="1" width="2.00"/>
    <type id="highway.bus_guideway" priority="1" numLanes="1" speed="27.78" allow="bus" oneway="1"/>
    <type id="highway.cycleway" priority="1" numLanes="1" speed="8.33" allow="bicycle" oneway="0" width="1.00"/>
    <type id="highway.footway" priority="1" numLanes="1" speed="2.78" allow="pedestrian" oneway="1" width="2.00"/>
    <type id="highway.ford" priority="1" numLanes="1" speed="2.78" allow="army" oneway="0"/>
    <type id="highway.living_street" priority="2" numLanes="1" speed="2.78" disallow="tram rail_urban rail rail_electric ship" oneway="0"/>
    <type id="highway.motorway" priority="14" numLanes="2" speed="39.44" allow="private emergency authority army vip passenger hov taxi bus coach delivery truck trailer motorcycle evehicle custom1 custom2" oneway="1"/>
    <type id="highway.motorway_link" priority="9" numLanes="1" speed="22.22" allow="private emergency authority army vip passenger hov taxi bus coach delivery truck trailer motorcycle evehicle custom1 custom2" oneway="1"/>
    <type id="highway.path" priority="1" numLanes="1" speed="2.78" allow="bicycle pedestrian" oneway="1" width="2.00"/>
    <type id="highway.pedestrian" priority="1" numLanes="1" speed="2.78" allow="pedestrian" oneway="1" width="2.00"/>
    <type id="highway.primary" priority="12" numLanes="2" speed="27.78" disallow="tram rail_urban rail rail_electric ship" oneway="0"/>
    <type id="highway.primary_link" priority="7" numLanes="1" speed="22.22" disallow="tram rail_urban rail rail_electric ship" oneway="0"/>
    <type id="highway.raceway" priority="15" numLanes="2" speed="83.33" allow="vip" oneway="0"/>
    <type id="highway.residential" priority="3" numLanes="1" speed="13.89" disallow="tram rail_urban rail rail_electric ship" oneway="0"/>
    <type id="highway.secondary" priority="11" numLanes="2" speed="27.78" disallow="tram rail_urban rail rail_electric ship" oneway="0"/>
    <type id="highway.secondary_link" priority="6" numLanes="1" speed="22.22" disallow="tram rail_urban rail rail_electric ship" oneway="0"/>
    <type id="highway.service" priority="1" numLanes="1" speed="5.56" allow="delivery bicycle pedestrian" oneway="0"/>
    <type id="highway.stairs" priority="1" numLanes="1" speed="1.39" allow="pedestrian" oneway="1" width="2.00"/>
    <type id="highway.step" priority="1" numLanes="1" speed="1.39" allow="pedestrian" oneway="1" width="2.00"/>
    <type id="highway.steps" priority="1" numLanes="1" speed="1.39" allow="pedestrian" oneway="1" width="2.00"/>
    <type id="highway.tertiary" priority="10" numLanes="1" speed="22.22" disallow="tram rail_urban rail rail_electric ship" oneway="0"/>
    <type id="highway.tertiary_link" priority="5" numLanes="1" speed="22.22" disallow="tram rail_urban rail rail_electric ship" oneway="0"/>
    <type id="highway.track" priority="1" numLanes="1" speed="5.56" disallow="tram rail_urban rail rail_electric ship" oneway="0"/>
    <type id="highway.trunk" priority="13" numLanes="2" speed="27.78" disallow="tram rail_urban rail rail_electric bicycle pedestrian ship" oneway="0"/>
    <type id="highway.trunk_link" priority="8" numLanes="1" speed="22.22" disallow="tram rail_urban rail rail_electric bicycle pedestrian ship" oneway="0"/>
    <type id="highway.unclassified" priority="4" numLanes="1" speed="13.89" disallow="tram rail_urban rail rail_electric ship" oneway="0"/>
    <type id="highway.unsurfaced" priority="1" numLanes="1" speed="8.33" disallow="tram rail_urban rail rail_electric ship" oneway="0"/>
    <type id="railway.light_rail" priority="19" numLanes="1" speed="27.78" allow="rail_urban" oneway="1"/>
    <type id="railway.preserved" priority="16" numLanes="1" speed="27.78" allow="rail" oneway="1"/>
    <type id="railway.rail" priority="20" numLanes="1" speed="83.33" allow="rail rail_electric" oneway="1"/>
    <type id="railway.subway" priority="18" numLanes="1" speed="27.78" allow="rail_urban" oneway="1"/>
    <type id="railway.tram" priority="17" numLanes="1" speed="13.89" allow="tram" oneway="1"/>

    <edge id=":261141515_0" function="internal">
        <lane id=":261141515_0_0" index="0" disallow="tram rail_urban rail rail_electric ship" speed="6.51" length="9.03" shape="2374.45,1397.57 2372.00,1397.90 2370.24,1398.93 2369.17,1400.67 2368.80,1403.11"/>
    </edge>
    <edge id=":261141515_1" function="internal">
        <lane id=":261141515_1_0" index="0" disallow="tram rail_urban rail rail_electric ship" speed="13.89" length="14.39" shape="2374.45,1397.57 2360.07,1397.41"/>
    </edge>
    <edge id=":261141515_2" function="internal">
        <lane id=":261141515_2_0" index="0" disallow="tram rail_urban rail rail_electric ship" speed="3.65" length="2.34" shape="2374.45,1397.57 2373.26,1396.76 2372.87,1395.95"/>
    </edge>
    <edge id=":261141515_9" function="internal">
        <lane id=":261141515_9_0" index="0" disallow="tram rail_urban rail rail_electric ship" speed="3.65" length="2.34" shape="2372.87,1395.95 2373.28,1395.16 2374.48,1394.37"/>
    </edge>
    <edge id=":261141515_3" function="internal">
        <lane id=":261141515_3_0" index="0" disallow="tram rail_urban rail rail_electric ship" speed="13.89" length="14.38" shape="2360.11,1394.21 2374.48,1394.37"/>
    </edge>
    <edge id=":261141515_4" function="internal">
        <lane id=":261141515_4_0" index="0" disallow="tram rail_urban rail rail_electric ship" speed="8.00" length="5.91" shape="2360.11,1394.21 2363.95,1394.81 2365.67,1395.87"/>
    </edge>
    <edge id=":261141515_5" function="internal">
        <lane id=":261141515_5_0" index="0" disallow="tram rail_urban rail rail_electric ship" speed="3.65" length="2.34" shape="2360.11,1394.21 2361.30,1395.02 2361.69,1395.83"/>
    </edge>
    <edge id=":261141515_10" function="internal">
        <lane id=":261141515_10_0" index="0" disallow="tram rail_urban rail rail_electric ship" speed="8.00" length="8.27" shape="2365.67,1395.87 2366.68,1396.49 2368.29,1399.26 2368.80,1403.11"/>
    </edge>
    <edge id=":261141515_11" function="internal">
        <lane id=":261141515_11_0" index="0" disallow="tram rail_urban rail rail_electric ship" speed="3.65" length="2.34" shape="2361.69,1395.83 2361.28,1396.62 2360.07,1397.41"/>
    </edge>
    <edge id=":261141515_6" function="internal">
        <lane id=":261141515_6_0" index="0" disallow="tram rail_urban rail rail_electric ship" speed="6.51" length="9.02" shape="2365.60,1403.07 2365.28,1400.62 2364.25,1398.86 2362.51,1397.79 2360.07,1397.41"/>
    </edge>
    <edge id=":261141515_7" function="internal">
        <lane id=":261141515_7_0" index="0" disallow="tram rail_urban rail rail_electric ship" speed="8.00" length="14.18" shape="2365.60,1403.07 2366.19,1399.23 2367.87,1396.50 2370.63,1394.88 2374.48,1394.37"/>
    </edge>
    <edge id=":261141515_8" function="internal">
        <lane id=":261141515_8_0" index="0" disallow="tram rail_urban rail rail_electric ship" speed="3.65" length="4.67" shape="2365.60,1403.07 2366.41,1401.88 2367.22,1401.49 2368.01,1401.90 2368.80,1403.11"/>
    </edge>
    <edge id=":261141516_0" function="internal">
        <lane id=":261141516_0_0" index="0" disallow="tram rail_urban rail rail_electric ship" speed="11.18" length="14.44" shape="2371.93,1617.37 2357.50,1617.19"/>
    </edge>
    <edge id=":261141516_1" function="internal">
        <lane id=":261141516_1_0" index="0" disallow="tram rail_urban rail rail_electric ship" speed="8.00" length="5.97" shape="2371.93,1617.37 2368.09,1616.79 2366.31,1615.70"/>
    </edge>
    <edge id=":261141516_2" function="internal">
        <lane id=":261141516_2_0" index="0" disallow="tram rail_urban rail rail_electric ship" speed="3.65" length="2.34" shape="2371.93,1617.37 2370.74,1616.56 2370.35,1615.76"/>
    </edge>
    <edge id=":261141516_9" function="internal">
        <lane id=":261141516_9_0" index="0" disallow="tram rail_urban rail rail_electric ship" speed="8.00" length="8.24" shape="2366.31,1615.70 2365.35,1615.11 2363.73,1612.34 2363.23,1608.48"/>
    </edge>
    <edge id=":261141516_10" function="internal">
        <lane id=":261141516_10_0" index="0" disallow="tram rail_urban rail rail_electric ship" speed="3.65" length="2.34" shape="2370.35,1615.76 2370.76,1614.96 2371.96,1614.17"/>
    </edge>
    <edge id=":261141516_3" function="internal">
        <lane id=":261141516_3_0" index="0" disallow="tram rail_urban rail rail_electric ship" speed="6.50" length="9.04" shape="2366.42,1608.51 2366.75,1610.97 2367.78,1612.73 2369.52,1613.80 2371.96,1614.17"/>
    </edge>
    <edge id=":261141516_4" function="internal">
        <lane id=":261141516_4_0" index="0" disallow="tram rail_urban rail rail_electric ship" speed="7.99" length="14.21" shape="2366.42,1608.51 2365.83,1612.36 2364.14,1615.09 2361.36,1616.70 2357.50,1617.19"/>
    </edge>
    <edge id=":261141516_5" function="internal">
        <lane id=":261141516_5_0" index="0" disallow="tram rail_urban rail rail_electric ship" speed="3.65" length="4.67" shape="2366.42,1608.51 2365.61,1609.70 2364.81,1610.09 2364.01,1609.68 2363.23,1608.48"/>
    </edge>
    <edge id=":261141516_6" function="internal">
        <lane id=":261141516_6_0" index="0" disallow="tram rail_urban rail rail_electric ship" speed="6.50" length="9.03" shape="2357.55,1613.99 2360.01,1613.68 2361.77,1612.66 2362.85,1610.92 2363.23,1608.48"/>
    </edge>
    <edge id=":261141516_7" function="internal">
        <lane id=":261141516_7_0" index="0" disallow="tram rail_urban rail rail_electric ship" speed="11.18" length="14.41" shape="2357.55,1613.99 2371.96,1614.17"/>
    </edge>
    <edge id=":261141516_8" function="internal">
        <lane id=":261141516_8_0" index="0" disallow="tram rail_urban rail rail_electric ship" speed="3.65" length="2.34" shape="2357.55,1613.99 2358.74,1614.81 2359.12,1615.61"/>
    </edge>
    <edge id=":261141516_11" function="internal">
        <lane id=":261141516_11_0" index="0" disallow="tram rail_urban rail rail_electric ship" speed="3.65" length="2.34" shape="2359.12,1615.61 2358.71,1616.41 2357.50,1617.19"/>
    </edge>
    <edge id=":261168243_0" function="internal">
        <lane id=":261168243_0_0" index="0" disallow="tram rail_urban rail rail_electric ship" speed="11.18" length="14.31" shape="2506.28,1618.64 2491.97,1618.45"/>
    </edge>
    <edge id=":261168243_1" function="internal">
        <lane id=":261168243_1_0" index="0" disallow="tram rail_urban rail rail_electric ship" speed="8.00" length="5.87" shape="2506.28,1618.64 2502.46,1618.03 2500.77,1616.97"/>
    </edge>
    <edge id=":261168243_2" function="internal">
        <lane id=":261168243_2_0" index="0" disallow="tram rail_urban rail rail_electric ship" speed="3.65" length="2.34" shape="2506.28,1618.64 2505.10,1617.82 2504.71,1617.01"/>
    </edge>
    <edge id=":261168243_9" function="internal">
        <lane id=":261168243_9_0" index="0" disallow="tram rail_urban rail rail_electric ship" speed="8.00" length="8.27" shape="2500.77,1616.97 2499.75,1616.33 2498.14,1613.56 2497.65,1609.72"/>
    </edge>
    <edge id=":261168243_10" function="internal">
        <lane id=":261168243_10_0" index="0" disallow="tram rail_urban rail rail_electric ship" speed="3.65" length="2.34" shape="2504.71,1617.01 2505.13,1616.22 2506.34,1615.44"/>
    </edge>
    <edge id=":261168243_3" function="internal">
        <lane id=":261168243_3_0" index="0" disallow="tram rail_urban rail rail_electric ship" speed="6.51" length="9.00" shape="2500.85,1609.77 2501.16,1612.21 2502.18,1613.97 2503.91,1615.05 2506.34,1615.44"/>
    </edge>
    <edge id=":261168243_4" function="internal">
        <lane id=":261168243_4_0" index="0" disallow="tram rail_urban rail rail_electric ship" speed="8.00" length="14.14" shape="2500.85,1609.77 2500.25,1613.59 2498.57,1616.32 2495.81,1617.93 2491.97,1618.45"/>
    </edge>
    <edge id=":261168243_5" function="internal">
        <lane id=":261168243_5_0" index="0" disallow="tram rail_urban rail rail_electric ship" speed="3.65" length="4.67" shape="2500.85,1609.77 2500.03,1610.96 2499.23,1611.34 2498.43,1610.93 2497.65,1609.72"/>
    </edge>
    <edge id=":261168243_6" function="internal">
        <lane id=":261168243_6_0" index="0" disallow="tram rail_urban rail rail_electric ship" speed="6.51" length="9.00" shape="2492.00,1615.25 2494.44,1614.92 2496.20,1613.89 2497.27,1612.16 2497.65,1609.72"/>
    </edge>
    <edge id=":261168243_7" function="internal">
        <lane id=":261168243_7_0" index="0" disallow="tram rail_urban rail rail_electric ship" speed="11.18" length="14.35" shape="2492.00,1615.25 2506.34,1615.44"/>
    </edge>
    <edge id=":261168243_8" function="internal">
        <lane id=":261168243_8_0" index="0" disallow="tram rail_urban rail rail_electric ship" speed="3.65" length="2.34" shape="2492.00,1615.25 2493.19,1616.06 2493.59,1616.86"/>
    </edge>
    <edge id=":261168243_11" function="internal">
        <lane id=":261168243_11_0" index="0" disallow="tram rail_urban rail rail_electric ship" speed="3.65" length="2.34" shape="2493.59,1616.86 2493.18,1617.66 2491.97,1618.45"/>
    </edge>
    <edge id=":261168244_0" function="internal">
        <lane id=":261168244_0_0" index="0" disallow="tram rail_urban rail rail_electric ship" speed="11.18" length="14.43" shape="2270.31,1615.70 2255.88,1615.41"/>
    </edge>
    <edge id=":261168244_1" function="internal">
        <lane id=":261168244_1_0" index="0" disallow="tram rail_urban rail rail_electric ship" speed="8.02" length="5.95" shape="2270.31,1615.70 2266.48,1615.09 2264.73,1613.99"/>
    </edge>
    <edge id=":261168244_2" function="internal">
        <lane id=":261168244_2_0" index="0" disallow="tram rail_urban rail rail_electric ship" speed="3.65" length="2.34" shape="2270.31,1615.70 2269.13,1614.88 2268.74,1614.08"/>
    </edge>
    <edge id=":261168244_9" function="internal">
        <lane id=":261168244_9_0" index="0" disallow="tram rail_urban rail rail_electric ship" speed="8.02" length="8.27" shape="2264.73,1613.99 2263.76,1613.38 2262.15,1610.59 2261.64,1606.72"/>
    </edge>
    <edge id=":261168244_10" function="internal">
        <lane id=":261168244_10_0" index="0" disallow="tram rail_urban rail rail_electric ship" speed="3.65" length="2.34" shape="2268.74,1614.08 2269.15,1613.28 2270.37,1612.50"/>
    </edge>
    <edge id=":261168244_3" function="internal">
        <lane id=":261168244_3_0" index="0" disallow="tram rail_urban rail rail_electric ship" speed="6.54" length="9.08" shape="2264.84,1606.76 2265.16,1609.24 2266.19,1611.02 2267.93,1612.11 2270.37,1612.50"/>
    </edge>
    <edge id=":261168244_4" function="internal">
        <lane id=":261168244_4_0" index="0" disallow="tram rail_urban rail rail_electric ship" speed="7.98" length="14.24" shape="2264.84,1606.76 2264.24,1610.62 2262.55,1613.35 2259.76,1614.95 2255.88,1615.41"/>
    </edge>
    <edge id=":261168244_5" function="internal">
        <lane id=":261168244_5_0" index="0" disallow="tram rail_urban rail rail_electric ship" speed="3.65" length="4.67" shape="2264.84,1606.76 2264.03,1607.95 2263.22,1608.34 2262.43,1607.93 2261.64,1606.72"/>
    </edge>
    <edge id=":261168244_6" function="internal">
        <lane id=":261168244_6_0" index="0" disallow="tram rail_urban rail rail_electric ship" speed="6.48" length="9.03" shape="2255.96,1612.21 2258.42,1611.91 2260.19,1610.90 2261.26,1609.17 2261.64,1606.72"/>
    </edge>
    <edge id=":261168244_7" function="internal">
        <lane id=":261168244_7_0" index="0" disallow="tram rail_urban rail rail_electric ship" speed="11.18" length="14.41" shape="2255.96,1612.21 2270.37,1612.50"/>
    </edge>
    <edge id=":261168244_8" function="internal">
        <lane id=":261168244_8_0" index="0" disallow="tram rail_urban rail rail_electric ship" speed="3.65" length="2.34" shape="2255.96,1612.21 2257.14,1613.04 2257.52,1613.84"/>
    </edge>
    <edge id=":261168244_11" function="internal">
        <lane id=":261168244_11_0" index="0" disallow="tram rail_urban rail rail_electric ship" speed="3.65" length="2.34" shape="2257.52,1613.84 2257.10,1614.63 2255.88,1615.41"/>
    </edge>
    <edge id=":261168245_0" function="internal">
        <lane id=":261168245_0_0" index="0" disallow="tram rail_urban rail rail_electric ship" speed="11.18" length="14.43" shape="2169.68,1614.12 2155.25,1614.00"/>
    </edge>
    <edge id=":261168245_1" function="internal">
        <lane id=":261168245_1_0" index="0" disallow="tram rail_urban rail rail_electric ship" speed="7.99" length="5.97" shape="2169.68,1614.12 2165.82,1613.55 2164.06,1612.47"/>
    </edge>
    <edge id=":261168245_2" function="internal">
        <lane id=":261168245_2_0" index="0" disallow="tram rail_urban rail rail_electric ship" speed="3.65" length="2.34" shape="2169.68,1614.12 2168.48,1613.31 2168.09,1612.51"/>
    </edge>
    <edge id=":261168245_9" function="internal">
        <lane id=":261168245_9_0" index="0" disallow="tram rail_urban rail rail_electric ship" speed="7.99" length="8.25" shape="2164.06,1612.47 2163.08,1611.88 2161.46,1609.11 2160.95,1605.25"/>
    </edge>
    <edge id=":261168245_10" function="internal">
        <lane id=":261168245_10_0" index="0" disallow="tram rail_urban rail rail_electric ship" speed="3.65" length="2.34" shape="2168.09,1612.51 2168.49,1611.71 2169.70,1610.92"/>
    </edge>
    <edge id=":261168245_3" function="internal">
        <lane id=":261168245_3_0" index="0" disallow="tram rail_urban rail rail_electric ship" speed="6.50" length="9.03" shape="2164.15,1605.28 2164.47,1607.74 2165.50,1609.49 2167.25,1610.55 2169.70,1610.92"/>
    </edge>
    <edge id=":261168245_4" function="internal">
        <lane id=":261168245_4_0" index="0" disallow="tram rail_urban rail rail_electric ship" speed="8.00" length="14.21" shape="2164.15,1605.28 2163.55,1609.13 2161.87,1611.87 2159.11,1613.49 2155.25,1614.00"/>
    </edge>
    <edge id=":261168245_5" function="internal">
        <lane id=":261168245_5_0" index="0" disallow="tram rail_urban rail rail_electric ship" speed="3.65" length="4.67" shape="2164.15,1605.28 2163.33,1606.47 2162.53,1606.86 2161.73,1606.46 2160.95,1605.25"/>
    </edge>
    <edge id=":261168245_6" function="internal">
        <lane id=":261168245_6_0" index="0" disallow="tram rail_urban rail rail_electric ship" speed="6.51" length="9.04" shape="2155.29,1610.80 2157.74,1610.47 2159.50,1609.44 2160.57,1607.70 2160.95,1605.25"/>
    </edge>
    <edge id=":261168245_7" function="internal">
        <lane id=":261168245_7_0" index="0" disallow="tram rail_urban rail rail_electric ship" speed="11.18" length="14.41" shape="2155.29,1610.80 2169.70,1610.92"/>
    </edge>
    <edge id=":261168245_8" function="internal">
        <lane id=":261168245_8_0" index="0" disallow="tram rail_urban rail rail_electric ship" speed="3.65" length="2.34" shape="2155.29,1610.80 2156.48,1611.61 2156.87,1612.41"/>
    </edge>
    <edge id=":261168245_11" function="internal">
        <lane id=":261168245_11_0" index="0" disallow="tram rail_urban rail rail_electric ship" speed="3.65" length="2.34" shape="2156.87,1612.41 2156.46,1613.21 2155.25,1614.00"/>
    </edge>
    <edge id=":261168246_0" function="internal">
        <lane id=":261168246_0_0" index="0" disallow="tram rail_urban rail rail_electric ship" speed="11.18" length="14.39" shape="2068.96,1612.98 2054.57,1612.82"/>
    </edge>
    <edge id=":261168246_1" function="internal">
        <lane id=":261168246_1_0" index="0" disallow="tram rail_urban rail rail_electric ship" speed="8.00" length="5.92" shape="2068.96,1612.98 2065.12,1612.39 2063.38,1611.32"/>
    </edge>
    <edge id=":261168246_2" function="internal">
        <lane id=":261168246_2_0" index="0" disallow="tram rail_urban rail rail_electric ship" speed="3.65" length="2.34" shape="2068.96,1612.98 2067.77,1612.17 2067.38,1611.37"/>
    </edge>
    <edge id=":261168246_9" function="internal">
        <lane id=":261168246_9_0" index="0" disallow="tram rail_urban rail rail_electric ship" speed="8.00" length="8.27" shape="2063.38,1611.32 2062.39,1610.71 2060.77,1607.94 2060.26,1604.09"/>
    </edge>
    <edge id=":261168246_10" function="internal">
        <lane id=":261168246_10_0" index="0" disallow="tram rail_urban rail rail_electric ship" speed="3.65" length="2.34" shape="2067.38,1611.37 2067.79,1610.57 2069.00,1609.78"/>
    </edge>
    <edge id=":261168246_3" function="internal">
        <lane id=":261168246_3_0" index="0" disallow="tram rail_urban rail rail_electric ship" speed="6.51" length="9.03" shape="2063.46,1604.12 2063.78,1606.57 2064.81,1608.34 2066.55,1609.41 2069.00,1609.78"/>
    </edge>
    <edge id=":261168246_4" function="internal">
        <lane id=":261168246_4_0" index="0" disallow="tram rail_urban rail rail_electric ship" speed="8.00" length="14.19" shape="2063.46,1604.12 2062.87,1607.96 2061.19,1610.69 2058.42,1612.32 2054.57,1612.82"/>
    </edge>
    <edge id=":261168246_5" function="internal">
        <lane id=":261168246_5_0" index="0" disallow="tram rail_urban rail rail_electric ship" speed="3.65" length="4.67" shape="2063.46,1604.12 2062.65,1605.31 2061.84,1605.70 2061.05,1605.29 2060.26,1604.09"/>
    </edge>
    <edge id=":261168246_6" function="internal">
        <lane id=":261168246_6_0" index="0" disallow="tram rail_urban rail rail_electric ship" speed="6.51" length="9.03" shape="2054.60,1609.62 2057.05,1609.30 2058.81,1608.27 2059.88,1606.53 2060.26,1604.09"/>
    </edge>
    <edge id=":261168246_7" function="internal">
        <lane id=":261168246_7_0" index="0" disallow="tram rail_urban rail rail_electric ship" speed="11.18" length="14.40" shape="2054.60,1609.62 2069.00,1609.78"/>
    </edge>
    <edge id=":261168246_8" function="internal">
        <lane id=":261168246_8_0" index="0" disallow="tram rail_urban rail rail_electric ship" speed="3.65" length="2.34" shape="2054.60,1609.62 2055.79,1610.44 2056.18,1611.24"/>
    </edge>
    <edge id=":261168246_11" function="internal">
        <lane id=":261168246_11_0" index="0" disallow="tram rail_urban rail rail_electric ship" speed="3.65" length="2.34" shape="2056.18,1611.24 2055.78,1612.04 2054.57,1612.82"/>
    </edge>
    <edge id=":261168247_0" function="internal">
        <lane id=":261168247_0_0" index="0" disallow="tram rail_urban rail rail_electric ship" speed="11.18" length="14.41" shape="1967.16,1611.92 1952.75,1611.76"/>
    </edge>
    <edge id=":261168247_1" function="internal">
        <lane id=":261168247_1_0" index="0" disallow="tram rail_urban rail rail_electric ship" speed="8.00" length="5.94" shape="1967.16,1611.92 1963.31,1611.33 1961.57,1610.26"/>
    </edge>
    <edge id=":261168247_2" function="internal">
        <lane id=":261168247_2_0" index="0" disallow="tram rail_urban rail rail_electric ship" speed="3.65" length="2.34" shape="1967.16,1611.92 1965.97,1611.11 1965.58,1610.31"/>
    </edge>
    <edge id=":261168247_9" function="internal">
        <lane id=":261168247_9_0" index="0" disallow="tram rail_urban rail rail_electric ship" speed="8.00" length="8.26" shape="1961.57,1610.26 1960.58,1609.65 1958.96,1606.88 1958.46,1603.03"/>
    </edge>
    <edge id=":261168247_10" function="internal">
        <lane id=":261168247_10_0" index="0" disallow="tram rail_urban rail rail_electric ship" speed="3.65" length="2.34" shape="1965.58,1610.31 1965.98,1609.51 1967.19,1608.72"/>
    </edge>
    <edge id=":261168247_3" function="internal">
        <lane id=":261168247_3_0" index="0" disallow="tram rail_urban rail rail_electric ship" speed="6.50" length="9.03" shape="1961.66,1603.06 1961.98,1605.52 1963.01,1607.28 1964.74,1608.35 1967.19,1608.72"/>
    </edge>
    <edge id=":261168247_4" function="internal">
        <lane id=":261168247_4_0" index="0" disallow="tram rail_urban rail rail_electric ship" speed="8.00" length="14.20" shape="1961.66,1603.06 1961.06,1606.91 1959.38,1609.64 1956.61,1611.26 1952.75,1611.76"/>
    </edge>
    <edge id=":261168247_5" function="internal">
        <lane id=":261168247_5_0" index="0" disallow="tram rail_urban rail rail_electric ship" speed="3.65" length="2.56" shape="1961.66,1603.06 1960.84,1604.25 1960.04,1604.64 1959.84,1604.54"/>
    </edge>
    <edge id=":261168247_11" function="internal">
        <lane id=":261168247_11_0" index="0" disallow="tram rail_urban rail rail_electric ship" speed="3.65" length="2.12" shape="1959.84,1604.54 1959.24,1604.23 1958.46,1603.03"/>
    </edge>
    <edge id=":261168247_6" function="internal">
        <lane id=":261168247_6_0" index="0" disallow="tram rail_urban rail rail_electric ship" speed="6.51" length="9.04" shape="1952.79,1608.56 1955.24,1608.24 1957.01,1607.21 1958.08,1605.47 1958.46,1603.03"/>
    </edge>
    <edge id=":261168247_7" function="internal">
        <lane id=":261168247_7_0" index="0" disallow="tram rail_urban rail rail_electric ship" speed="11.18" length="14.40" shape="1952.79,1608.56 1967.19,1608.72"/>
    </edge>
    <edge id=":261168247_8" function="internal">
        <lane id=":261168247_8_0" index="0" disallow="tram rail_urban rail rail_electric ship" speed="3.65" length="2.34" shape="1952.79,1608.56 1953.98,1609.38 1954.37,1610.18"/>
    </edge>
    <edge id=":261168247_12" function="internal">
        <lane id=":261168247_12_0" index="0" disallow="tram rail_urban rail rail_electric ship" speed="3.65" length="2.34" shape="1954.37,1610.18 1953.96,1610.98 1952.75,1611.76"/>
    </edge>
    <edge id=":261168248_0" function="internal">
        <lane id=":261168248_0_0" index="0" disallow="tram rail_urban rail rail_electric ship" speed="11.18" length="14.43" shape="1843.74,1610.42 1829.31,1610.20"/>
    </edge>
    <edge id=":261168248_1" function="internal">
        <lane id=":261168248_1_0" index="0" disallow="tram rail_urban rail rail_electric ship" speed="8.02" length="5.95" shape="1843.74,1610.42 1839.91,1609.82 1838.15,1608.73"/>
    </edge>
    <edge id=":261168248_2" function="internal">
        <lane id=":261168248_2_0" index="0" disallow="tram rail_urban rail rail_electric ship" speed="3.65" length="2.34" shape="1843.74,1610.42 1842.55,1609.60 1842.16,1608.80"/>
    </edge>
    <edge id=":261168248_9" function="internal">
        <lane id=":261168248_9_0" index="0" disallow="tram rail_urban rail rail_electric ship" speed="8.02" length="8.27" shape="1838.15,1608.73 1837.18,1608.13 1835.55,1605.35 1835.03,1601.48"/>
    </edge>
    <edge id=":261168248_10" function="internal">
        <lane id=":261168248_10_0" index="0" disallow="tram rail_urban rail rail_electric ship" speed="3.65" length="2.34" shape="1842.16,1608.80 1842.57,1608.00 1843.78,1607.22"/>
    </edge>
    <edge id=":261168248_3" function="internal">
        <lane id=":261168248_3_0" index="0" disallow="tram rail_urban rail rail_electric ship" speed="6.53" length="9.08" shape="1838.23,1601.50 1838.56,1603.98 1839.60,1605.76 1841.34,1606.84 1843.78,1607.22"/>
    </edge>
    <edge id=":261168248_4" function="internal">
        <lane id=":261168248_4_0" index="0" disallow="tram rail_urban rail rail_electric ship" speed="7.98" length="14.24" shape="1838.23,1601.50 1837.65,1605.37 1835.97,1608.10 1833.19,1609.71 1829.31,1610.20"/>
    </edge>
    <edge id=":261168248_5" function="internal">
        <lane id=":261168248_5_0" index="0" disallow="tram rail_urban rail rail_electric ship" speed="3.65" length="4.67" shape="1838.23,1601.50 1837.42,1602.70 1836.62,1603.09 1835.82,1602.69 1835.03,1601.48"/>
    </edge>
    <edge id=":261168248_6" function="internal">
        <lane id=":261168248_6_0" index="0" disallow="tram rail_urban rail rail_electric ship" speed="6.48" length="9.03" shape="1829.37,1607.00 1831.83,1606.69 1833.60,1605.67 1834.66,1603.93 1835.03,1601.48"/>
    </edge>
    <edge id=":261168248_7" function="internal">
        <lane id=":261168248_7_0" index="0" disallow="tram rail_urban rail rail_electric ship" speed="11.18" length="14.41" shape="1829.37,1607.00 1843.78,1607.22"/>
    </edge>
    <edge id=":261168248_8" function="internal">
        <lane id=":261168248_8_0" index="0" disallow="tram rail_urban rail rail_electric ship" speed="3.65" length="2.34" shape="1829.37,1607.00 1830.56,1607.82 1830.94,1608.63"/>
    </edge>
    <edge id=":261168248_11" function="internal">
        <lane id=":261168248_11_0" index="0" disallow="tram rail_urban rail rail_electric ship" speed="3.65" length="2.34" shape="1830.94,1608.63 1830.53,1609.42 1829.31,1610.20"/>
    </edge>
    <edge id=":261176516_0" function="internal">