<configuration>
    <input>
        <net-file value="netspider.net.xml"/>
        <route-files value="tripss.trips.xml"/>
    </input>
    <time>
        <begin value="0"/>
        <end value="10000"/>
    </time>

    <output>
        <emission-output value="spider.emission.xml"/>
    </output>
</configuration>
