<?xml version="1.0" encoding="UTF-8"?>

<!-- generated on Sáb 18 Mai 2019 14:10:48 -03 by Eclipse SUMO netedit Version 1.2.0
<configuration xmlns:xsi="http://www.w3.org/2001/XMLSchema-instance" xsi:noNamespaceSchemaLocation="http://sumo.dlr.de/xsd/netconvertConfiguration.xsd">

    <input>
        <sumo-net-file value="/home/lucaszl/Downloads/chicago.net.xml"/>
    </input>

    <output>
        <output-file value="/home/lucaszl/Downloads/chicago.net.xml"/>
    </output>

    <processing>
        <geometry.max-grade.fix value="false"/>
        <offset.disable-normalization value="true"/>
        <lefthand value="false"/>
    </processing>

    <junctions>
        <no-turnarounds value="true"/>
        <junctions.corner-detail value="5"/>
        <junctions.limit-turn-speed value="5.5"/>
        <rectangular-lane-cut value="false"/>
    </junctions>

    <pedestrian>
        <walkingareas value="false"/>
    </pedestrian>

</configuration>
-->

<net version="1.1" junctionCornerDetail="5" limitTurnSpeed="5.50" xmlns:xsi="http://www.w3.org/2001/XMLSchema-instance" xsi:noNamespaceSchemaLocation="http://sumo.dlr.de/xsd/net_file.xsd">

    <location netOffset="-444430.04,-4635785.30" convBoundary="1529.34,381.28,3764.29,4546.20" origBoundary="-87.669994,41.872263,-87.607594,41.941596" projParameter="+proj=utm +zone=16 +ellps=WGS84 +datum=WGS84 +units=m +no_defs"/>

    <type id="highway.bridleway" priority="1" numLanes="1" speed="2.78" allow="pedestrian" oneway="1" width="2.00"/>
    <type id="highway.bus_guideway" priority="1" numLanes="1" speed="27.78" allow="bus" oneway="1"/>
    <type id="highway.cycleway" priority="1" numLanes="1" speed="8.33" allow="bicycle" oneway="0" width="1.00"/>
    <type id="highway.footway" priority="1" numLanes="1" speed="2.78" allow="pedestrian" oneway="1" width="2.00"/>
    <type id="highway.ford" priority="1" numLanes="1" speed="2.78" allow="army" oneway="0"/>
    <type id="highway.living_street" priority="2" numLanes="1" speed="2.78" disallow="tram rail_urban rail rail_electric ship" oneway="0"/>
    <type id="highway.motorway" priority="14" numLanes="2" speed="39.44" allow="private emergency authority army vip passenger hov taxi bus coach delivery truck trailer motorcycle evehicle custom1 custom2" oneway="1"/>
    <type id="highway.motorway_link" priority="9" numLanes="1" speed="22.22" allow="private emergency authority army vip passenger hov taxi bus coach delivery truck trailer motorcycle evehicle custom1 custom2" oneway="1"/>
    <type id="highway.path" priority="1" numLanes="1" speed="2.78" allow="bicycle pedestrian" oneway="1" width="2.00"/>
    <type id="highway.pedestrian" priority="1" numLanes="1" speed="2.78" allow="pedestrian" oneway="1" width="2.00"/>
    <type id="highway.primary" priority="12" numLanes="2" speed="27.78" disallow="tram rail_urban rail rail_electric ship" oneway="0"/>
    <type id="highway.primary_link" priority="7" numLanes="1" speed="22.22" disallow="tram rail_urban rail rail_electric ship" oneway="0"/>
    <type id="highway.raceway" priority="15" numLanes="2" speed="83.33" allow="vip" oneway="0"/>
    <type id="highway.residential" priority="3" numLanes="1" speed="13.89" disallow="tram rail_urban rail rail_electric ship" oneway="0"/>
    <type id="highway.secondary" priority="11" numLanes="2" speed="27.78" disallow="tram rail_urban rail rail_electric ship" oneway="0"/>
    <type id="highway.secondary_link" priority="6" numLanes="1" speed="22.22" disallow="tram rail_urban rail rail_electric ship" oneway="0"/>
    <type id="highway.service" priority="1" numLanes="1" speed="5.56" allow="delivery bicycle pedestrian" oneway="0"/>
    <type id="highway.stairs" priority="1" numLanes="1" speed="1.39" allow="pedestrian" oneway="1" width="2.00"/>
    <type id="highway.step" priority="1" numLanes="1" speed="1.39" allow="pedestrian" oneway="1" width="2.00"/>
    <type id="highway.steps" priority="1" numLanes="1" speed="1.39" allow="pedestrian" oneway="1" width="2.00"/>
    <type id="highway.tertiary" priority="10" numLanes="1" speed="22.22" disallow="tram rail_urban rail rail_electric ship" oneway="0"/>
    <type id="highway.tertiary_link" priority="5" numLanes="1" speed="22.22" disallow="tram rail_urban rail rail_electric ship" oneway="0"/>
    <type id="highway.track" priority="1" numLanes="1" speed="5.56" disallow="tram rail_urban rail rail_electric ship" oneway="0"/>
    <type id="highway.trunk" priority="13" numLanes="2" speed="27.78" disallow="tram rail_urban rail rail_electric bicycle pedestrian ship" oneway="0"/>
    <type id="highway.trunk_link" priority="8" numLanes="1" speed="22.22" disallow="tram rail_urban rail rail_electric bicycle pedestrian ship" oneway="0"/>
    <type id="highway.unclassified" priority="4" numLanes="1" speed="13.89" disallow="tram rail_urban rail rail_electric ship" oneway="0"/>
    <type id="highway.unsurfaced" priority="1" numLanes="1" speed="8.33" disallow="tram rail_urban rail rail_electric ship" oneway="0"/>
    <type id="railway.light_rail" priority="19" numLanes="1" speed="27.78" allow="rail_urban" oneway="1"/>
    <type id="railway.preserved" priority="16" numLanes="1" speed="27.78" allow="rail" oneway="1"/>
    <type id="railway.rail" priority="20" numLanes="1" speed="83.33" allow="rail rail_electric" oneway="1"/>
    <type id="railway.subway" priority="18" numLanes="1" speed="27.78" allow="rail_urban" oneway="1"/>
    <type id="railway.tram" priority="17" numLanes="1" speed="13.89" allow="tram" oneway="1"/>

    <edge id=":1232640627_0" function="internal">
        <lane id=":1232640627_0_0" index="0" allow="rail_urban" speed="4.37" length="2.62" shape="2975.96,1496.25 2976.67,1496.35 2977.18,1496.65 2977.47,1497.16 2977.57,1497.87"/>
    </edge>
    <edge id=":1232640631_0" function="internal">
        <lane id=":1232640631_0_0" index="0" allow="rail_urban" speed="4.39" length="2.55" shape="2973.63,1497.84 2973.74,1497.15 2974.04,1496.66 2974.53,1496.36 2975.22,1496.26"/>
    </edge>
    <edge id=":1232640634_0" function="internal">
        <lane id=":1232640634_0_0" index="0" allow="rail_urban" speed="4.39" length="2.54" shape="2977.56,1498.24 2977.45,1498.93 2977.15,1499.42 2976.66,1499.72 2975.97,1499.82"/>
    </edge>
    <edge id=":1232640666_0" function="internal">
        <lane id=":1232640666_0_0" index="0" allow="rail_urban" speed="4.37" length="2.61" shape="2975.24,1499.82 2974.53,1499.72 2974.02,1499.42 2973.72,1498.91 2973.63,1498.20"/>
    </edge>
    <edge id=":1386043173_0" function="internal">
        <lane id=":1386043173_0_0" index="0" disallow="tram rail_urban rail rail_electric ship" speed="22.22" length="8.41" shape="3646.36,1614.32 3643.89,1614.83 3642.35,1615.93 3640.80,1617.02 3638.33,1617.49"/>
        <lane id=":1386043173_0_1" index="1" disallow="tram rail_urban rail rail_electric ship" speed="22.22" length="8.41" shape="3646.36,1614.32 3638.36,1614.29"/>
    </edge>
    <edge id=":1386043173_2" function="internal">
        <lane id=":1386043173_2_0" index="0" disallow="tram rail_urban rail rail_electric ship" speed="22.22" length="7.97" shape="3638.39,1611.09 3646.35,1611.12"/>
    </edge>
    <edge id=":1434374544_0" function="internal">
        <lane id=":1434374544_0_0" index="0" disallow="tram rail_urban rail rail_electric ship" speed="6.90" length="10.35" shape="3465.57,2593.40 3465.89,2596.56 3466.92,2598.81 3468.66,2600.17 3471.11,2600.62"/>
    </edge>
    <edge id=":1434374544_1" function="internal">
        <lane id=":1434374544_1_0" index="0" disallow="tram rail_urban rail rail_electric ship" speed="27.78" length="13.32" shape="3465.57,2593.40 3465.03,2597.49 3463.90,2600.40 3462.77,2603.01 3462.22,2606.19"/>
    </edge>
    <edge id=":1434374544_2" function="internal">
        <lane id=":1434374544_2_0" index="0" disallow="tram rail_urban rail rail_electric ship" speed="3.65" length="2.34" shape="3462.37,2593.37 3461.56,2594.57 3460.75,2594.96"/>
    </edge>
    <edge id=":1434374544_10" function="internal">
        <lane id=":1434374544_10_0" index="0" disallow="tram rail_urban rail rail_electric ship" speed="3.65" length="2.34" shape="3460.75,2594.96 3459.96,2594.55 3459.17,2593.34"/>
    </edge>
    <edge id=":1434374544_3" function="internal">
        <lane id=":1434374544_3_0" index="0" disallow="tram rail_urban rail rail_electric ship" speed="6.49" length="9.03" shape="3450.30,2598.82 3452.76,2598.52 3454.53,2597.50 3455.60,2595.76 3455.97,2593.31"/>
    </edge>
    <edge id=":1434374544_4" function="internal">
        <lane id=":1434374544_4_0" index="0" disallow="tram rail_urban rail rail_electric ship" speed="22.22" length="20.89" shape="3450.30,2598.82 3471.11,2600.62"/>
    </edge>
    <edge id=":1434374544_5" function="internal">
        <lane id=":1434374544_5_0" index="0" disallow="tram rail_urban rail rail_electric ship" speed="8.39" length="15.68" shape="3450.30,2598.82 3455.56,2599.37 3459.29,2600.77 3461.52,2603.05 3462.22,2606.19"/>
    </edge>
    <edge id=":1434374544_6" function="internal">
        <lane id=":1434374544_6_0" index="0" disallow="tram rail_urban rail rail_electric ship" speed="27.78" length="12.80" shape="3455.82,2606.10 3455.97,2593.31"/>
        <lane id=":1434374544_6_1" index="1" disallow="tram rail_urban rail rail_electric ship" speed="27.78" length="12.80" shape="3459.02,2606.15 3459.17,2593.34"/>
    </edge>
    <edge id=":1434374544_8" function="internal">
        <lane id=":1434374544_8_0" index="0" disallow="tram rail_urban rail rail_electric ship" speed="8.14" length="4.30" shape="3459.02,2606.15 3459.81,2603.72 3461.20,2602.67"/>
    </edge>
    <edge id=":1434374544_9" function="internal">
        <lane id=":1434374544_9_0" index="0" disallow="tram rail_urban rail rail_electric ship" speed="3.65" length="2.58" shape="3459.02,2606.15 3459.84,2604.96 3460.65,2604.57 3460.86,2604.68"/>
    </edge>
    <edge id=":1434374544_11" function="internal">
        <lane id=":1434374544_11_0" index="0" disallow="tram rail_urban rail rail_electric ship" speed="8.14" length="10.29" shape="3461.20,2602.67 3462.08,2602.00 3465.85,2600.96 3471.11,2600.62"/>
    </edge>
    <edge id=":1434374544_12" function="internal">
        <lane id=":1434374544_12_0" index="0" disallow="tram rail_urban rail rail_electric ship" speed="3.65" length="2.10" shape="3460.86,2604.68 3461.44,2604.98 3462.22,2606.19"/>
    </edge>
    <edge id=":1448905814_0" function="internal">
        <lane id=":1448905814_0_0" index="0" disallow="tram rail_urban rail rail_electric ship" speed="20.59" length="4.72" shape="3226.37,1028.96 3223.81,1024.55"/>
        <lane id=":1448905814_0_1" index="1" disallow="tram rail_urban rail rail_electric ship" speed="19.02" length="4.72" shape="3229.57,1029.03 3226.81,1025.67"/>
    </edge>
    <edge id=":1448914875_0" function="internal">
        <lane id=":1448914875_0_0" index="0" disallow="tram rail_urban rail rail_electric ship" speed="27.78" length="9.39" shape="3180.10,797.65 3170.72,797.60"/>
        <lane id=":1448914875_0_1" index="1" disallow="tram rail_urban rail rail_electric ship" speed="27.78" length="9.39" shape="3180.12,794.45 3170.73,794.40"/>
        <lane id=":1448914875_0_2" index="2" disallow="tram rail_urban rail rail_electric ship" speed="27.78" length="9.39" shape="3180.14,791.25 3170.75,791.20"/>
    </edge>
    <edge id=":1448914875_3" function="internal">
        <lane id=":1448914875_3_0" index="0" allow="delivery bicycle pedestrian" speed="6.08" length="7.77" shape="3180.14,791.25 3177.39,791.04 3175.42,790.44 3174.25,789.46 3173.87,788.09"/>
    </edge>
    <edge id=":1448914875_4" function="internal">
        <lane id=":1448914875_4_0" index="0" disallow="tram rail_urban rail rail_electric ship" speed="6.88" length="10.16" shape="3177.07,788.12 3176.65,790.88 3175.45,792.84 3173.48,794.02 3170.73,794.40"/>
    </edge>
    <edge id=":1448914875_5" function="internal">
        <lane id=":1448914875_5_0" index="0" disallow="tram rail_urban rail rail_electric ship" speed="6.10" length="7.76" shape="3177.07,788.12 3176.66,789.48 3175.47,790.44 3173.50,791.02 3170.75,791.20"/>
    </edge>
    <edge id=":1448914875_6" function="internal">
        <lane id=":1448914875_6_0" index="0" allow="delivery bicycle pedestrian" speed="3.65" length="4.67" shape="3177.07,788.12 3176.26,789.31 3175.45,789.71 3174.66,789.30 3173.87,788.09"/>
    </edge>
    <edge id=":1448914876_0" function="internal">
        <lane id=":1448914876_0_0" index="0" allow="delivery bicycle pedestrian" speed="5.56" length="9.40" shape="3171.54,721.30 3180.94,721.42"/>
    </edge>
    <edge id=":1448914876_1" function="internal">
        <lane id=":1448914876_1_0" index="0" allow="delivery bicycle pedestrian" speed="5.56" length="7.76" shape="3171.54,721.30 3174.29,721.53 3176.25,722.14 3177.42,723.12 3177.80,724.48"/>
    </edge>
    <edge id=":1448914876_2" function="internal">
        <lane id=":1448914876_2_0" index="0" allow="delivery bicycle pedestrian" speed="5.56" length="7.76" shape="3174.60,724.44 3175.01,723.09 3176.20,722.14 3178.18,721.58 3180.94,721.42"/>
    </edge>
    <edge id=":1448914876_3" function="internal">
        <lane id=":1448914876_3_0" index="0" allow="delivery bicycle pedestrian" speed="3.65" length="4.67" shape="3174.60,724.44 3175.42,723.25 3176.22,722.86 3177.02,723.27 3177.80,724.48"/>
    </edge>
    <edge id=":1457057867_0" function="internal">
        <lane id=":1457057867_0_0" index="0" allow="delivery bicycle pedestrian" speed="3.65" length="4.67" shape="3279.69,708.59 3280.88,709.40 3281.28,710.20 3280.88,711.00 3279.67,711.79"/>
    </edge>
    <edge id=":1457057869_0" function="internal">
        <lane id=":1457057869_0_0" index="0" disallow="tram rail_urban rail rail_electric ship" speed="27.78" length="9.40" shape="3230.93,714.69 3230.93,705.29"/>
        <lane id=":1457057869_0_1" index="1" disallow="tram rail_urban rail rail_electric ship" speed="27.78" length="9.40" shape="3234.13,714.69 3234.13,705.29"/>
    </edge>
    <edge id=":1457057869_2" function="internal">
        <lane id=":1457057869_2_0" index="0" allow="delivery bicycle pedestrian" speed="6.08" length="7.77" shape="3234.13,714.69 3234.32,711.93 3234.91,709.97 3235.88,708.79 3237.25,708.40"/>
    </edge>
    <edge id=":1457057869_3" function="internal">
        <lane id=":1457057869_3_0" index="0" disallow="tram rail_urban rail rail_electric ship" speed="6.09" length="7.76" shape="3237.23,711.60 3235.88,711.20 3234.91,710.02 3234.33,708.05 3234.13,705.29"/>
    </edge>
    <edge id=":1457057869_4" function="internal">
        <lane id=":1457057869_4_0" index="0" allow="delivery bicycle pedestrian" speed="3.65" length="4.67" shape="3237.23,711.60 3236.04,710.79 3235.64,709.99 3236.04,709.19 3237.25,708.40"/>
    </edge>
    <edge id=":1619741416_0" function="internal">
        <lane id=":1619741416_0_0" index="0" disallow="tram rail_urban rail rail_electric ship" speed="22.22" length="9.40" shape="3186.14,936.40 3195.54,936.50"/>
    </edge>
    <edge id=":1619741416_1" function="internal">
        <lane id=":1619741416_1_0" index="0" allow="delivery bicycle pedestrian" speed="6.09" length="7.76" shape="3186.14,936.40 3188.90,936.63 3190.86,937.23 3192.03,938.21 3192.42,939.57"/>
    </edge>
    <edge id=":1619741416_2" function="internal">
        <lane id=":1619741416_2_0" index="0" disallow="tram rail_urban rail rail_electric ship" speed="6.08" length="7.76" shape="3189.22,939.55 3189.62,938.19 3190.81,937.23 3192.78,936.66 3195.54,936.50"/>
    </edge>
    <edge id=":1619741416_3" function="internal">
        <lane id=":1619741416_3_0" index="0" allow="delivery bicycle pedestrian" speed="3.65" length="4.67" shape="3189.22,939.55 3190.03,938.35 3190.83,937.96 3191.63,938.36 3192.42,939.57"/>
    </edge>
    <edge id=":1619741461_0" function="internal">
        <lane id=":1619741461_0_0" index="0" allow="delivery bicycle pedestrian" speed="3.65" length="4.67" shape="3192.17,973.95 3191.36,975.15 3190.56,975.54 3189.76,975.13 3188.97,973.93"/>
    </edge>
    <edge id=":1660311006_0" function="internal">
        <lane id=":1660311006_0_0" index="0" allow="delivery bicycle pedestrian" speed="5.56" length="9.40" shape="3303.14,1815.16 3293.74,1815.08"/>
    </edge>
    <edge id=":1660311006_1" function="internal">
        <lane id=":1660311006_1_0" index="0" allow="delivery bicycle pedestrian" speed="5.56" length="10.20" shape="3303.14,1815.16 3300.37,1814.74 3298.41,1813.54 3297.26,1811.54 3296.91,1808.77"/>
    </edge>
    <edge id=":1660311006_2" function="internal">
        <lane id=":1660311006_2_0" index="0" allow="delivery bicycle pedestrian" speed="3.65" length="4.67" shape="3303.14,1815.16 3301.95,1814.35 3301.55,1813.55 3301.96,1812.75 3303.17,1811.96"/>
    </edge>
    <edge id=":1660311006_3" function="internal">
        <lane id=":1660311006_3_0" index="0" allow="delivery bicycle pedestrian" speed="5.03" length="5.01" shape="3300.11,1808.82 3300.28,1810.19 3300.85,1811.16 3301.81,1811.76 3303.17,1811.96"/>
    </edge>
    <edge id=":1660311006_4" function="internal">
        <lane id=":1660311006_4_0" index="0" allow="delivery bicycle pedestrian" speed="5.56" length="10.16" shape="3300.11,1808.82 3299.67,1811.58 3298.46,1813.54 3296.49,1814.71 3293.74,1815.08"/>
    </edge>
    <edge id=":1660311006_5" function="internal">
        <lane id=":1660311006_5_0" index="0" allow="delivery bicycle pedestrian" speed="3.65" length="4.67" shape="3300.11,1808.82 3299.29,1810.01 3298.48,1810.40 3297.69,1809.98 3296.91,1808.77"/>
    </edge>
    <edge id=":1660311006_6" function="internal">
        <lane id=":1660311006_6_0" index="0" allow="delivery bicycle pedestrian" speed="5.07" length="5.03" shape="3293.77,1811.88 3295.12,1811.70 3296.10,1811.12 3296.69,1810.14 3296.91,1808.77"/>
    </edge>
    <edge id=":1660311006_7" function="internal">
        <lane id=":1660311006_7_0" index="0" allow="delivery bicycle pedestrian" speed="5.56" length="9.40" shape="3293.77,1811.88 3303.17,1811.96"/>
    </edge>
    <edge id=":1660311006_8" function="internal">
        <lane id=":1660311006_8_0" index="0" allow="delivery bicycle pedestrian" speed="3.65" length="4.67" shape="3293.77,1811.88 3294.96,1812.69 3295.36,1813.49 3294.95,1814.29 3293.74,1815.08"/>
    </edge>
    <edge id=":1660328230_0" function="internal">
        <lane id=":1660328230_0_0" index="0" disallow="tram rail_urban rail rail_electric ship" speed="22.22" length="9.52" shape="3148.16,1882.80 3138.64,1882.66"/>
    </edge>
    <edge id=":1660328230_1" function="internal">
        <lane id=":1660328230_1_0" index="0" allow="delivery bicycle pedestrian" speed="7.42" length="4.81" shape="3148.16,1882.80 3145.70,1882.35 3143.77,1881.09"/>
    </edge>
    <edge id=":1660328230_2" function="internal">
        <lane id=":1660328230_2_0" index="0" disallow="tram rail_urban rail rail_electric ship" speed="3.65" length="2.34" shape="3148.16,1882.80 3146.97,1881.98 3146.58,1881.18"/>
    </edge>
    <edge id=":1660328230_8" function="internal">
        <lane id=":1660328230_8_0" index="0" allow="delivery bicycle pedestrian" speed="7.42" length="5.51" shape="3143.77,1881.09 3142.38,1879.02 3141.53,1876.13"/>
    </edge>
    <edge id=":1660328230_9" function="internal">
        <lane id=":1660328230_9_0" index="0" disallow="tram rail_urban rail rail_electric ship" speed="3.65" length="2.34" shape="3146.58,1881.18 3147.00,1880.38 3148.21,1879.60"/>
    </edge>
    <edge id=":1660328230_3" function="internal">
        <lane id=":1660328230_3_0" index="0" disallow="tram rail_urban rail rail_electric ship" speed="5.76" length="5.85" shape="3144.68,1875.57 3145.16,1877.32 3145.91,1878.57 3146.93,1879.33 3148.21,1879.60"/>
    </edge>
    <edge id=":1660328230_4" function="internal">
        <lane id=":1660328230_4_0" index="0" disallow="tram rail_urban rail rail_electric ship" speed="6.73" length="11.15" shape="3144.68,1875.57 3144.78,1878.71 3143.81,1880.94 3141.76,1882.26 3138.64,1882.66"/>
    </edge>
    <edge id=":1660328230_5" function="internal">
        <lane id=":1660328230_5_0" index="0" allow="delivery bicycle pedestrian" speed="2.24" length="4.67" shape="3144.68,1875.57 3144.10,1876.89 3143.38,1877.42 3142.52,1877.17 3141.53,1876.13"/>
    </edge>
    <edge id=":1660328230_6" function="internal">
        <lane id=":1660328230_6_0" index="0" allow="delivery bicycle pedestrian" speed="4.86" length="5.24" shape="3138.69,1879.46 3140.16,1879.27 3141.12,1878.65 3141.57,1877.61 3141.53,1876.13"/>
    </edge>
    <edge id=":1660328230_7" function="internal">
        <lane id=":1660328230_7_0" index="0" disallow="tram rail_urban rail rail_electric ship" speed="22.22" length="9.52" shape="3138.69,1879.46 3148.21,1879.60"/>
    </edge>
    <edge id=":1660328245_0" function="internal">
        <lane id=":1660328245_0_0" index="0" disallow="tram rail_urban rail rail_electric ship" speed="22.22" length="9.56" shape="3124.36,1882.46 3114.80,1882.32"/>
    </edge>
    <edge id=":1660328245_1" function="internal">
        <lane id=":1660328245_1_0" index="0" allow="delivery bicycle pedestrian" speed="6.72" length="5.26" shape="3124.36,1882.46 3121.19,1881.96 3119.51,1880.79"/>
    </edge>
    <edge id=":1660328245_2" function="internal">
        <lane id=":1660328245_2_0" index="0" disallow="tram rail_urban rail rail_electric ship" speed="3.65" length="2.34" shape="3124.36,1882.46 3123.18,1881.64 3122.79,1880.84"/>
    </edge>
    <edge id=":1660328245_9" function="internal">
        <lane id=":1660328245_9_0" index="0" allow="delivery bicycle pedestrian" speed="6.72" length="6.07" shape="3119.51,1880.79 3119.18,1880.56 3118.32,1878.26 3118.62,1875.06"/>
    </edge>
    <edge id=":1660328245_10" function="internal">
        <lane id=":1660328245_10_0" index="0" disallow="tram rail_urban rail rail_electric ship" speed="3.65" length="2.34" shape="3122.79,1880.84 3123.20,1880.04 3124.41,1879.26"/>
    </edge>
    <edge id=":1660328245_3" function="internal">
        <lane id=":1660328245_3_0" index="0" disallow="tram rail_urban rail rail_electric ship" speed="4.84" length="5.29" shape="3121.73,1875.81 3121.59,1877.30 3121.99,1878.37 3122.93,1879.02 3124.41,1879.26"/>
    </edge>
    <edge id=":1660328245_4" function="internal">
        <lane id=":1660328245_4_0" index="0" disallow="tram rail_urban rail rail_electric ship" speed="7.53" length="10.36" shape="3121.73,1875.81 3120.70,1878.69 3119.21,1880.73 3117.24,1881.94 3114.80,1882.32"/>
    </edge>
    <edge id=":1660328245_5" function="internal">
        <lane id=":1660328245_5_0" index="0" allow="delivery bicycle pedestrian" speed="2.24" length="4.67" shape="3121.73,1875.81 3120.67,1876.79 3119.80,1876.99 3119.11,1876.41 3118.62,1875.06"/>
    </edge>
    <edge id=":1660328245_6" function="internal">
        <lane id=":1660328245_6_0" index="0" allow="delivery bicycle pedestrian" speed="5.90" length="6.01" shape="3114.85,1879.12 3116.13,1878.88 3117.18,1878.13 3118.01,1876.85 3118.62,1875.06"/>
    </edge>
    <edge id=":1660328245_7" function="internal">
        <lane id=":1660328245_7_0" index="0" disallow="tram rail_urban rail rail_electric ship" speed="22.22" length="9.56" shape="3114.85,1879.12 3124.41,1879.26"/>
    </edge>
    <edge id=":1660328245_8" function="internal">
        <lane id=":1660328245_8_0" index="0" disallow="tram rail_urban rail rail_electric ship" speed="3.65" length="2.34" shape="3114.85,1879.12 3116.04,1879.94 3116.43,1880.74"/>
    </edge>
    <edge id=":1660328245_11" function="internal">
        <lane id=":1660328245_11_0" index="0" disallow="tram rail_urban rail rail_electric ship" speed="3.65" length="2.34" shape="3116.43,1880.74 3116.02,1881.54 3114.80,1882.32"/>
    </edge>
    <edge id=":1672977013_0" function="internal">
        <lane id=":1672977013_0_0" index="0" allow="delivery bicycle pedestrian" speed="5.56" length="12.95" shape="3016.68,998.05 3003.73,997.85"/>
    </edge>
    <edge id=":1672977013_1" function="internal">
        <lane id=":1672977013_1_0" index="0" allow="delivery bicycle pedestrian" speed="5.56" length="17.61" shape="3016.68,998.05 3010.97,997.37 3008.51,995.55 3009.33,992.62 3013.41,988.55"/>
    </edge>
    <edge id=":1672977013_2" function="internal">
        <lane id=":1672977013_2_0" index="0" allow="delivery bicycle pedestrian" speed="3.65" length="4.67" shape="3016.68,998.05 3015.50,997.23 3015.11,996.43 3015.52,995.63 3016.74,994.85"/>
    </edge>
    <edge id=":1672977013_3" function="internal">
        <lane id=":1672977013_3_0" index="0" allow="delivery bicycle pedestrian" speed="4.71" length="7.07" shape="3015.42,991.04 3013.79,992.67 3013.46,993.85 3014.44,994.58 3016.74,994.85"/>
    </edge>
    <edge id=":1672977013_4" function="internal">
        <lane id=":1672977013_4_0" index="0" allow="delivery bicycle pedestrian" speed="5.56" length="13.85" shape="3015.42,991.04 3012.66,993.44 3010.00,995.65 3007.12,997.25 3003.73,997.85"/>
    </edge>
    <edge id=":1672977013_5" function="internal">
        <lane id=":1672977013_5_0" index="0" allow="delivery bicycle pedestrian" speed="3.65" length="4.67" shape="3015.42,991.04 3013.99,991.17 3013.17,990.80 3012.98,989.93 3013.41,988.55"/>
    </edge>
    <edge id=":1672977013_6" function="internal">
        <lane id=":1672977013_6_0" index="0" allow="delivery bicycle pedestrian" speed="5.56" length="11.78" shape="3003.77,994.65 3006.84,994.16 3009.01,992.80 3010.97,990.84 3013.41,988.55"/>
    </edge>
    <edge id=":1672977013_7" function="internal">
        <lane id=":1672977013_7_0" index="0" allow="delivery bicycle pedestrian" speed="5.56" length="12.96" shape="3003.77,994.65 3016.74,994.85"/>
    </edge>
    <edge id=":1672977013_8" function="internal">
        <lane id=":1672977013_8_0" index="0" allow="delivery bicycle pedestrian" speed="3.65" length="4.67" shape="3003.77,994.65 3004.96,995.46 3005.35,996.27 3004.94,997.06 3003.73,997.85"/>
    </edge>
    <edge id=":1672977029_0" function="internal">
        <lane id=":1672977029_0_0" index="0" allow="delivery bicycle pedestrian" speed="3.65" length="4.67" shape="3018.96,994.89 3020.14,995.71 3020.53,996.52 3020.12,997.31 3018.90,998.09"/>
    </edge>
    <edge id=":1672977042_0" function="internal">
        <lane id=":1672977042_0_0" index="0" disallow="tram rail_urban rail rail_electric ship" speed="22.22" length="9.40" shape="3012.17,934.73 3021.57,934.82"/>
    </edge>
    <edge id=":1672977042_1" function="internal">
        <lane id=":1672977042_1_0" index="0" allow="delivery bicycle pedestrian" speed="6.09" length="7.76" shape="3012.17,934.73 3014.93,934.95 3016.89,935.55 3018.06,936.53 3018.45,937.89"/>
    </edge>
    <edge id=":1672977042_2" function="internal">
        <lane id=":1672977042_2_0" index="0" disallow="tram rail_urban rail rail_electric ship" speed="6.08" length="7.76" shape="3015.25,937.86 3015.65,936.51 3016.84,935.55 3018.81,934.98 3021.57,934.82"/>
    </edge>
    <edge id=":1672977042_3" function="internal">
        <lane id=":1672977042_3_0" index="0" allow="delivery bicycle pedestrian" speed="3.65" length="4.67" shape="3015.25,937.86 3016.06,936.67 3016.86,936.28 3017.65,936.68 3018.45,937.89"/>
    </edge>
    <edge id=":1675127008_0" function="internal">
        <lane id=":1675127008_0_0" index="0" allow="delivery bicycle pedestrian" speed="5.04" length="5.00" shape="3051.42,1881.31 3050.06,1881.48 3049.08,1882.04 3048.48,1883.00 3048.27,1884.35"/>
    </edge>
    <edge id=":1675127008_1" function="internal">
        <lane id=":1675127008_1_0" index="0" disallow="tram rail_urban rail rail_electric ship" speed="22.22" length="9.40" shape="3051.42,1881.31 3042.02,1881.13"/>
    </edge>
    <edge id=":1675127008_2" function="internal">
        <lane id=":1675127008_2_0" index="0" disallow="tram rail_urban rail rail_electric ship" speed="3.65" length="2.34" shape="3051.42,1881.31 3050.23,1880.48 3049.85,1879.68"/>
    </edge>
    <edge id=":1675127008_9" function="internal">
        <lane id=":1675127008_9_0" index="0" disallow="tram rail_urban rail rail_electric ship" speed="3.65" length="2.34" shape="3049.85,1879.68 3050.26,1878.88 3051.48,1878.11"/>
    </edge>
    <edge id=":1675127008_3" function="internal">
        <lane id=":1675127008_3_0" index="0" disallow="tram rail_urban rail rail_electric ship" speed="22.22" length="9.40" shape="3042.08,1877.93 3051.48,1878.11"/>
    </edge>
    <edge id=":1675127008_4" function="internal">
        <lane id=":1675127008_4_0" index="0" allow="delivery bicycle pedestrian" speed="6.87" length="5.08" shape="3042.08,1877.93 3044.82,1878.38 3046.77,1879.60"/>
    </edge>
    <edge id=":1675127008_5" function="internal">
        <lane id=":1675127008_5_0" index="0" disallow="tram rail_urban rail rail_electric ship" speed="3.65" length="2.34" shape="3042.08,1877.93 3043.26,1878.76 3043.65,1879.56"/>
    </edge>
    <edge id=":1675127008_10" function="internal">
        <lane id=":1675127008_10_0" index="0" allow="delivery bicycle pedestrian" speed="6.87" length="5.09" shape="3046.77,1879.60 3047.92,1881.59 3048.27,1884.35"/>
    </edge>
    <edge id=":1675127008_11" function="internal">
        <lane id=":1675127008_11_0" index="0" disallow="tram rail_urban rail rail_electric ship" speed="3.65" length="2.34" shape="3043.65,1879.56 3043.23,1880.36 3042.02,1881.13"/>
    </edge>
    <edge id=":1675127008_6" function="internal">
        <lane id=":1675127008_6_0" index="0" disallow="tram rail_urban rail rail_electric ship" speed="5.05" length="5.01" shape="3045.07,1884.30 3044.89,1882.94 3044.33,1881.95 3043.37,1881.35 3042.02,1881.13"/>
    </edge>
    <edge id=":1675127008_7" function="internal">
        <lane id=":1675127008_7_0" index="0" disallow="tram rail_urban rail rail_electric ship" speed="6.86" length="10.17" shape="3045.07,1884.30 3045.50,1881.55 3046.72,1879.60 3048.71,1878.45 3051.48,1878.11"/>
    </edge>
    <edge id=":1675127008_8" function="internal">