<?xml version="1.0"?>
<!-- generated on 2019-06-04 07:49:18.510169 by $Id: route2trips.py 18237 2015-04-20 10:43:52Z namdre $ -->
<trips>
    <trip id="0" depart="0.00" from="-598682773" to="433784887"/>
    <trip id="2" depart="0.60" from="-132454527" to="179116700"/>
    <trip id="3" depart="0.90" from="-36743072#23" to="567173822#1"/>
    <trip id="4" depart="1.20" from="24069251" to="292231929"/>
    <trip id="5" depart="1.50" from="203231746" to="435381813"/>
    <trip id="6" depart="1.80" from="-218814594#1" to="218175295#2"/>
    <trip id="7" depart="2.10" from="-220952646" to="571650001#1"/>
    <trip id="8" depart="2.40" from="-154827478" to="571534363"/>
    <trip id="9" depart="2.70" from="-193698046" to="449387217#4"/>
    <trip id="10" depart="3.00" from="-542283583#1" to="208648740"/>
    <trip id="12" depart="3.60" from="-160062324" to="59145215"/>
    <trip id="13" depart="3.90" from="116846056#0" to="-218557530"/>
    <trip id="15" depart="4.50" from="-210291686#1" to="210665978"/>
    <trip id="16" depart="4.80" from="-218175295#2" to="145493699"/>
    <trip id="17" depart="5.10" from="219051894" to="-241967496#0"/>
    <trip id="18" depart="5.40" from="24077554#0" to="-207811511#0"/>
    <trip id="19" depart="5.70" from="-231289624#1" to="571329380#11"/>
    <trip id="20" depart="6.00" from="-571540772" to="210649418#0"/>
    <trip id="21" depart="6.30" from="210666450" to="225767014#1"/>
    <trip id="22" depart="6.60" from="-571538043#0" to="-178252323#0"/>
    <trip id="23" depart="6.90" from="245738831#0" to="612857348"/>
    <trip id="24" depart="7.20" from="626252238#0" to="435558478#1"/>
    <trip id="25" depart="7.50" from="-571534362" to="160062324"/>
    <trip id="26" depart="7.80" from="24069251" to="435724066#0"/>
    <trip id="27" depart="8.10" from="-210351471" to="-571540754#1"/>
    <trip id="30" depart="9.00" from="-148910693" to="571534486"/>
    <trip id="32" depart="9.60" from="-241967451#3" to="210666451#1"/>
    <trip id="34" depart="10.20" from="-209879614" to="24087617"/>
    <trip id="35" depart="10.50" from="-24068919#1" to="465963058"/>
    <trip id="36" depart="10.80" from="-151171587" to="-618553699"/>
    <trip id="37" depart="11.10" from="-56175732#4" to="337810781"/>
    <trip id="38" depart="11.40" from="-152976474#1" to="219051920#1"/>
    <trip id="39" depart="11.70" from="-24094730#5" to="-669781834#0"/>
    <trip id="40" depart="12.00" from="-610135077#1" to="610135081"/>
    <trip id="41" depart="12.30" from="-612126713#1" to="610135077#1"/>
    <trip id="42" depart="12.60" from="-223669254#2" to="591861396"/>
    <trip id="43" depart="12.90" from="-571534639" to="-36870051#0"/>
    <trip id="44" depart="13.20" from="295270142" to="590536154"/>
    <trip id="46" depart="13.80" from="433246688" to="151428239#8"/>
    <trip id="47" depart="14.10" from="-286645839" to="-142994809#8"/>
    <trip id="48" depart="14.40" from="-151310040" to="31232188"/>
    <trip id="52" depart="15.60" from="56152948#0" to="35767165"/>
    <trip id="53" depart="15.90" from="-24229796#2" to="23810320#6"/>
    <trip id="54" depart="16.20" from="-610135079" to="316174519#2"/>
    <trip id="57" depart="17.10" from="-445158173#1" to="571545709"/>
    <trip id="58" depart="17.40" from="-401086006" to="59401052#2"/>
    <trip id="59" depart="17.70" from="132047920#3" to="465963058"/>
    <trip id="60" depart="18.00" from="24088523#1" to="-531512980"/>
    <trip id="61" depart="18.30" from="-435542917#0" to="-591856891"/>
    <trip id="62" depart="18.60" from="23761316#1" to="465506511"/>
    <trip id="63" depart="18.90" from="-218175288" to="571546138"/>
    <trip id="64" depart="19.20" from="-571545732" to="-571649991#1"/>
    <trip id="66" depart="19.80" from="206630532" to="315828473#1"/>
    <trip id="67" depart="20.10" from="571650001#0" to="612126714#1"/>
    <trip id="68" depart="20.40" from="35767347#1" to="210649415#6"/>
    <trip id="69" depart="20.70" from="210278902#0" to="571649997"/>
    <trip id="70" depart="21.00" from="435724082#0" to="241967472#1"/>
    <trip id="71" depart="21.30" from="-567173822#1" to="178039128#1"/>
    <trip id="72" depart="21.60" from="255623937#5" to="24097573#2"/>
    <trip id="73" depart="21.90" from="-145815746#1" to="490575664"/>
    <trip id="77" depart="23.10" from="-571538031" to="-219051877"/>
    <trip id="78" depart="23.40" from="-571329380#11" to="145493699"/>
    <trip id="79" depart="23.70" from="591860026" to="452922081#1"/>
    <trip id="80" depart="24.00" from="160062366#3" to="314637344"/>
    <trip id="81" depart="24.30" from="-210666451#1" to="24069401"/>
    <trip id="82" depart="24.60" from="24082318#0" to="207811514"/>
    <trip id="83" depart="24.90" from="-292231932" to="209879614"/>
    <trip id="84" depart="25.20" from="-522800067" to="445359472"/>
    <trip id="85" depart="25.50" from="-218557532#1" to="-218410551"/>
    <trip id="86" depart="25.80" from="-488357316#2" to="465963058"/>
    <trip id="87" depart="26.10" from="33917132#0" to="435324896"/>
    <trip id="88" depart="26.40" from="591860026" to="172706874#4"/>
    <trip id="90" depart="27.00" from="-571649999#1" to="-295270142"/>
    <trip id="92" depart="27.60" from="-255564249" to="148910695#2"/>
    <trip id="94" depart="28.20" from="-571534486" to="-621313566"/>
    <trip id="95" depart="28.50" from="-24089680#4" to="214814219"/>
    <trip id="96" depart="28.80" from="-24118319#11" to="591854368"/>
    <trip id="97" depart="29.10" from="-693992497#1" to="468154315"/>
    <trip id="98" depart="29.40" from="-220952646" to="219332193#1"/>
    <trip id="99" depart="29.70" from="218175296#0" to="571538034"/>
    <trip id="100" depart="30.00" from="-295270143#1" to="219051922#1"/>
    <trip id="103" depart="30.90" from="36743991#2" to="207811515#1"/>
    <trip id="105" depart="31.50" from="624058442" to="24089680#4"/>
    <trip id="107" depart="32.10" from="249986137" to="148902973#0"/>
    <trip id="108" depart="32.40" from="-683816242" to="154827478"/>
    <trip id="109" depart="32.70" from="-475011095" to="-24068919#0"/>
    <trip id="110" depart="33.00" from="-241967488#1" to="24082067#4"/>
    <trip id="111" depart="33.30" from="-305815457" to="-206631843#2"/>
    <trip id="112" depart="33.60" from="483248154#0" to="-73911663#0"/>
    <trip id="113" depart="33.90" from="591861394" to="267582577#1"/>
    <trip id="114" depart="34.20" from="-571540467#1" to="571545709"/>
    <trip id="116" depart="34.80" from="-213415139#1" to="36743072#23"/>
    <trip id="118" depart="35.40" from="435658248" to="210278894"/>
    <trip id="119" depart="35.70" from="218814595#0" to="-604388934#0"/>
    <trip id="120" depart="36.00" from="-571540973#1" to="193698046"/>
    <trip id="121" depart="36.30" from="-571538043#2" to="208648667#1"/>
    <trip id="122" depart="36.60" from="488357316#0" to="-24952965"/>
    <trip id="123" depart="36.90" from="-24092323#3" to="-591856891"/>
    <trip id="125" depart="37.50" from="-152976474#1" to="571537443"/>
    <trip id="127" depart="38.10" from="-571534364" to="542283563#1"/>
    <trip id="128" depart="38.40" from="-466734734#1" to="-24069251"/>
    <trip id="130" depart="39.00" from="-24105260" to="571545799#3"/>
    <trip id="131" depart="39.30" from="-148910673" to="143012148#3"/>
    <trip id="132" depart="39.60" from="-143012148#3" to="-249986137"/>
    <trip id="133" depart="39.90" from="-220952646" to="49231288#1"/>
    <trip id="134" depart="40.20" from="-449387217#4" to="-36870051#0"/>
    <trip id="135" depart="40.50" from="-24070981#1" to="145493699"/>
    <trip id="137" depart="41.10" from="-209879614" to="445359472"/>
    <trip id="138" depart="41.40" from="152760567" to="218814589#1"/>
    <trip id="139" depart="41.70" from="148910695#2" to="404110778#0"/>
    <trip id="141" depart="42.30" from="219051924#0" to="220950833#10"/>
    <trip id="142" depart="42.60" from="219051922#0" to="207811507#1"/>
    <trip id="144" depart="43.20" from="24118319#0" to="-621313566"/>
    <trip id="148" depart="44.40" from="-571546003" to="209879614"/>
    <trip id="151" depart="45.30" from="-172706881#3" to="-219051910"/>
    <trip id="152" depart="45.60" from="-207811507#1" to="-208648693#3"/>
    <trip id="153" depart="45.90" from="-117578185#0" to="-590859828"/>
    <trip id="154" depart="46.20" from="-210351471" to="445359472"/>
    <trip id="155" depart="46.50" from="218814589#0" to="612857347"/>
    <trip id="156" depart="46.80" from="614566941" to="56175732#1"/>
    <trip id="157" depart="47.10" from="59407145#0" to="-155560825"/>
    <trip id="158" depart="47.40" from="-242256104" to="591861397#1"/>
    <trip id="159" depart="47.70" from="-598682773" to="-483248154#0"/>
    <trip id="160" depart="48.00" from="319358161" to="210665978"/>
    <trip id="161" depart="48.30" from="178042325" to="145846238#1"/>
    <trip id="162" depart="48.60" from="-286645839" to="-218395877#0"/>
    <trip id="163" depart="48.90" from="218395877#0" to="59678396#0"/>
    <trip id="165" depart="49.50" from="591856891" to="154827478"/>
    <trip id="166" depart="49.80" from="-452185021#1" to="591861396"/>
    <trip id="167" depart="50.10" from="214814212" to="435657102#1"/>
    <trip id="169" depart="50.70" from="-612126714#1" to="526051857"/>
    <trip id="171" depart="51.30" from="-545329180" to="202375197#1"/>
    <trip id="173" depart="51.90" from="-612857346" to="-433246687#0"/>
    <trip id="174" depart="52.20" from="219051901" to="24070981#1"/>
    <trip id="175" depart="52.50" from="-571534489#1" to="-571537455#0"/>
    <trip id="176" depart="52.80" from="-571538046" to="305815462"/>
    <trip id="177" depart="53.10" from="-213415139#1" to="24077597#6"/>
    <trip id="178" depart="53.40" from="604388934#0" to="56150507#1"/>
    <trip id="179" depart="53.70" from="-305815457" to="210649415#6"/>
    <trip id="180" depart="54.00" from="-209879614" to="542283582#1"/>
    <trip id="181" depart="54.30" from="219051918#0" to="-255623936"/>
    <trip id="182" depart="54.60" from="184295524#2" to="255564249"/>
    <trip id="183" depart="54.90" from="210278868" to="193698046"/>
    <trip id="184" depart="55.20" from="-480014018#5" to="152976473#0"/>
    <trip id="185" depart="55.50" from="79654785" to="149119622#7"/>
    <trip id="187" depart="56.10" from="-231307555" to="208648685"/>
    <trip id="188" depart="56.40" from="-24092323#3" to="148902973#2"/>
    <trip id="190" depart="57.00" from="591861395" to="117581807#4"/>
    <trip id="191" depart="57.30" from="-542283561#0" to="433784889#1"/>
    <trip id="193" depart="57.90" from="230775773" to="-210278911"/>
    <trip id="195" depart="58.50" from="-295270143#1" to="567173822#1"/>
    <trip id="196" depart="58.80" from="633954392#0" to="435724065#1"/>
    <trip id="197" depart="59.10" from="-231289624#1" to="218175294#1"/>
    <trip id="198" depart="59.40" from="-433246686#0" to="571538033"/>
    <trip id="199" depart="59.70" from="-245738835#0" to="-433780233#0"/>
    <trip id="200" depart="60.00" from="219051939" to="337812625#1"/>
    <trip id="201" depart="60.30" from="210278905#0" to="231289624#1"/>
    <trip id="202" depart="60.60" from="614566936" to="219051920#1"/>
    <trip id="203" depart="60.90" from="591861395" to="207811511#3"/>
    <trip id="204" depart="61.20" from="-591861396" to="154289440"/>
    <trip id="206" depart="61.80" from="-267582577#1" to="23701604#7"/>
    <trip id="209" depart="62.70" from="24118319#0" to="152976474#1"/>
    <trip id="210" depart="63.00" from="-466734734#1" to="-152760567"/>
    <trip id="211" depart="63.30" from="56630630#0" to="56630622#3"/>
    <trip id="212" depart="63.60" from="-571540668" to="612857348"/>
    <trip id="213" depart="63.90" from="571534489#1" to="-24090836#0"/>
    <trip id="215" depart="64.50" from="-490582856#1" to="-591861395"/>
    <trip id="216" depart="64.80" from="-571545709" to="-207811511#0"/>
    <trip id="217" depart="65.10" from="-152976465" to="-219051939"/>
    <trip id="218" depart="65.40" from="-475011095" to="-241967451#0"/>
    <trip id="219" depart="65.70" from="-210666449#1" to="571537440"/>
    <trip id="221" depart="66.30" from="214814212" to="59341827#1"/>
    <trip id="223" depart="66.90" from="56460400" to="571650003#3"/>
    <trip id="224" depart="67.20" from="591854367#0" to="23890930#1"/>
    <trip id="225" depart="67.50" from="-571535545" to="-36743072#22"/>
    <trip id="228" depart="68.40" from="-31232188" to="24069401"/>
    <trip id="229" depart="68.70" from="571537445#0" to="-219051913"/>
    <trip id="230" depart="69.00" from="218814595#0" to="-316174517#5"/>
    <trip id="232" depart="69.60" from="220952655" to="216991854#1"/>
    <trip id="234" depart="70.20" from="-571534364" to="208648685"/>
    <trip id="235" depart="70.50" from="-202375203#2" to="591854368"/>
    <trip id="236" depart="70.80" from="145837219#1" to="24093628#6"/>
    <trip id="238" depart="71.40" from="190820979" to="24079931#2"/>
    <trip id="241" depart="72.30" from="4477285#0" to="23825858#1"/>
    <trip id="242" depart="72.60" from="219051898#0" to="672861350#8"/>
    <trip id="243" depart="72.90" from="-24114877" to="210278871"/>
    <trip id="244" depart="73.20" from="468098035#0" to="56175732#1"/>
    <trip id="246" depart="73.80" from="23646718#3" to="571544590#1"/>
    <trip id="248" depart="74.40" from="-435558478#1" to="-214814212"/>
    <trip id="249" depart="74.70" from="-210666451#1" to="-206630532"/>
    <trip id="250" depart="75.00" from="626252238#0" to="-24076346#0"/>
    <trip id="251" depart="75.30" from="214814222" to="-24068443#0"/>
    <trip id="252" depart="75.60" from="618553699" to="24069160"/>
    <trip id="253" depart="75.90" from="-24068443#1" to="571535545"/>
    <trip id="255" depart="76.50" from="-241967472#1" to="208648696"/>
    <trip id="257" depart="77.10" from="207811513#0" to="475011095"/>
    <trip id="258" depart="77.40" from="312901463" to="571535537"/>
    <trip id="259" depart="77.70" from="31232145#0" to="-73911663#0"/>
    <trip id="260" depart="78.00" from="316764837#1" to="214814224#2"/>
    <trip id="261" depart="78.30" from="-225767014#1" to="-151309569#0"/>
    <trip id="262" depart="78.60" from="219051898#0" to="154289437#1"/>
    <trip id="264" depart="79.20" from="-571545710" to="148910692"/>
    <trip id="265" depart="79.50" from="207811507#0" to="24074681#2"/>
    <trip id="266" depart="79.80" from="149985167#0" to="664982212"/>
    <trip id="267" depart="80.10" from="571537437" to="124471125#6"/>
    <trip id="268" depart="80.40" from="56572439#0" to="145815746#7"/>
    <trip id="269" depart="80.70" from="591861395" to="-209916954#0"/>
    <trip id="272" depart="81.60" from="-24092323#3" to="-219717588"/>
    <trip id="273" depart="81.90" from="614566941" to="-210278891#0"/>
    <trip id="274" depart="82.20" from="-23701604#3" to="214814217#1"/>
    <trip id="275" depart="82.50" from="543027744" to="445158173#1"/>
    <trip id="277" depart="83.10" from="-571558664" to="57883829#1"/>
    <trip id="278" depart="83.40" from="-499084041#2" to="-207811511#0"/>
    <trip id="279" depart="83.70" from="614566936" to="571545883"/>
    <trip id="281" depart="84.30" from="-24092323#3" to="-56150506"/>
    <trip id="282" depart="84.60" from="-178066795#3" to="-218814586"/>
    <trip id="283" depart="84.90" from="-610135081" to="571558664"/>
    <trip id="286" depart="85.80" from="433781984#0" to="48785420"/>
    <trip id="287" depart="86.10" from="626402350" to="571540466#1"/>
    <trip id="289" depart="86.70" from="-223669254#2" to="220952662#1"/>
    <trip id="290" depart="87.00" from="-571650001#1" to="-24103505#1"/>
    <trip id="291" depart="87.30" from="-24090547#1" to="210278894"/>
    <trip id="292" depart="87.60" from="-23825827#0" to="315828473#0"/>
    <trip id="293" depart="87.90" from="-525615639" to="664982212"/>
    <trip id="295" depart="88.50" from="-571548483" to="207811511#3"/>
    <trip id="296" depart="88.80" from="-24089680#4" to="612126714#1"/>
    <trip id="297" depart="89.10" from="571540768#1" to="404110771"/>
    <trip id="299" depart="89.70" from="160062366#0" to="-24442704#0"/>
    <trip id="300" depart="90.00" from="-522800072" to="245738834"/>
    <trip id="301" depart="90.30" from="-225767014#1" to="-571538047#0"/>
    <trip id="305" depart="91.50" from="218395880#0" to="465506511"/>
    <trip id="306" depart="91.80" from="203231744" to="-24083874#0"/>
    <trip id="308" depart="92.40" from="571538047#0" to="-24082318#0"/>
    <trip id="309" depart="92.70" from="-36743926#0" to="24087617"/>
    <trip id="310" depart="93.00" from="-292231937" to="571540772"/>
    <trip id="311" depart="93.30" from="-31232188" to="-213415129#4"/>
    <trip id="312" depart="93.60" from="-220952646" to="-614566941"/>
    <trip id="315" depart="94.50" from="-151310335#1" to="571537440"/>
    <trip id="316" depart="94.80" from="-213415139#1" to="-441462669#0"/>
    <trip id="317" depart="95.10" from="-571548484" to="571540813"/>
    <trip id="318" depart="95.40" from="-24070981#1" to="-210278875"/>
    <trip id="319" depart="95.70" from="571537455#0" to="-140872476#8"/>
    <trip id="320" depart="96.00" from="253737731#0" to="-24076346#0"/>
    <trip id="321" depart="96.30" from="-452922081#1" to="-49231336#1"/>
    <trip id="322" depart="96.60" from="-571558812" to="591860025"/>
    <trip id="324" depart="97.20" from="-207811511#3" to="-267582577#0"/>
    <trip id="326" depart="97.80" from="571545799#3" to="-152976468"/>
    <trip id="327" depart="98.10" from="-542283566#2" to="612126713#1"/>
    <trip id="328" depart="98.40" from="-219051915#3" to="-213415139#0"/>
    <trip id="329" depart="98.70" from="-317705316" to="571546139"/>
    <trip id="331" depart="99.30" from="-210665971#1" to="435324815"/>
    <trip id="332" depart="99.60" from="-225767014#1" to="255564249"/>
    <trip id="333" depart="99.90" from="284481974#0" to="571545732"/>
    <trip id="334" depart="100.20" from="-571548485" to="664982199"/>
    <trip id="335" depart="100.50" from="-571540972" to="59407145#3"/>
    <trip id="336" depart="100.80" from="571541303#1" to="95357377#4"/>
    <trip id="337" depart="101.10" from="-210278883#1" to="-615639101"/>
    <trip id="338" depart="101.40" from="24077554#0" to="571546003"/>
    <trip id="340" depart="102.00" from="-610135077#1" to="-116042806#0"/>
    <trip id="341" depart="102.30" from="-207811507#1" to="-132047917#0"/>
    <trip id="343" depart="102.90" from="23701604#0" to="571540813"/>
    <trip id="344" depart="103.20" from="571546130" to="207811511#3"/>
    <trip id="345" depart="103.50" from="24077554#0" to="433248469#5"/>
    <trip id="346" depart="103.80" from="24075634#0" to="-218557533#0"/>
    <trip id="348" depart="104.40" from="-571650000#1" to="449387217#4"/>
    <trip id="349" depart="104.70" from="286298268" to="571535545"/>
    <trip id="350" depart="105.00" from="-488357316#2" to="124471125#6"/>
    <trip id="351" depart="105.30" from="24952965" to="-207135793"/>
    <trip id="353" depart="105.90" from="-571540670#2" to="145799518#0"/>
    <trip id="354" depart="106.20" from="24115563#0" to="-26232853#0"/>
    <trip id="355" depart="106.50" from="-218175297" to="-210278891#0"/>
    <trip id="356" depart="106.80" from="-218175288" to="314637344"/>
    <trip id="357" depart="107.10" from="633954392#0" to="-132047917#0"/>
    <trip id="358" depart="107.40" from="-591860025" to="152976474#1"/>
    <trip id="359" depart="107.70" from="-480014018#5" to="151570579#2"/>
    <trip id="360" depart="108.00" from="-210278894" to="210665978"/>
    <trip id="361" depart="108.30" from="-317705316" to="-210278868"/>
    <trip id="362" depart="108.60" from="-218175295#2" to="591861398"/>
    <trip id="363" depart="108.90" from="241967472#0" to="632301929#1"/>
    <trip id="364" depart="109.20" from="499084041#0" to="542283583#1"/>
    <trip id="365" depart="109.50" from="-241967496#1" to="-219051913"/>
    <trip id="366" depart="109.80" from="626402350" to="445359472"/>
    <trip id="367" depart="110.10" from="24220202#1" to="-24082067#0"/>
    <trip id="368" depart="110.40" from="441514507#0" to="24070981#1"/>
    <trip id="369" depart="110.70" from="-207811511#3" to="-514505609#3"/>
    <trip id="370" depart="111.00" from="621313565#0" to="314637344"/>
    <trip id="371" depart="111.30" from="-207811515#1" to="-213415139#0"/>
    <trip id="372" depart="111.60" from="305815459" to="152976465"/>
    <trip id="373" depart="111.90" from="-610135079" to="-24069251"/>
    <trip id="375" depart="112.50" from="-571546004#2" to="-319358171#0"/>
    <trip id="376" depart="112.80" from="-219051915#3" to="218557531#1"/>
    <trip id="377" depart="113.10" from="-210351471" to="-210278870"/>
    <trip id="378" depart="113.40" from="-59670543" to="-207811511#0"/>
    <trip id="380" depart="114.00" from="24090836#0" to="59678396#0"/>
    <trip id="381" depart="114.30" from="-223669252#1" to="210665971#1"/>
    <trip id="382" depart="114.60" from="-571545710" to="-210278907#1"/>
    <trip id="383" depart="114.90" from="56460400" to="-203231746"/>
    <trip id="385" depart="115.50" from="626402350" to="-210278868"/>
    <trip id="387" depart="116.10" from="435324903#1" to="241967472#1"/>
    <trip id="388" depart="116.40" from="230775773" to="231308287#2"/>
    <trip id="390" depart="117.00" from="179119872#0" to="208648740"/>
    <trip id="391" depart="117.30" from="219051910" to="245738831#1"/>
    <trip id="393" depart="117.90" from="-526051857" to="503424129#1"/>
    <trip id="394" depart="118.20" from="-245738835#4" to="231307555"/>
    <trip id="395" depart="118.50" from="148902959#0" to="522800077#1"/>
    <trip id="396" depart="118.80" from="-185528581#2" to="-24082318#0"/>
    <trip id="397" depart="119.10" from="-24069401" to="312901457#3"/>
    <trip id="398" depart="119.40" from="-225767017#0" to="24092930#2"/>
    <trip id="400" depart="120.00" from="-241967472#1" to="26233018#11"/>
    <trip id="401" depart="120.30" from="-571544996#4" to="218175288"/>
    <trip id="402" depart="120.60" from="-24068919#1" to="445359464"/>
    <trip id="403" depart="120.90" from="-56175732#4" to="664982199"/>
    <trip id="404" depart="121.20" from="-664982212" to="445290295#0"/>
    <trip id="405" depart="121.50" from="590851556" to="633300071#1"/>
    <trip id="406" depart="121.80" from="-148902960#1" to="591861398"/>
    <trip id="407" depart="122.10" from="-210278873#1" to="59407145#3"/>
    <trip id="408" depart="122.40" from="435724067" to="-591860026"/>
    <trip id="409" depart="122.70" from="24118319#0" to="24096295#1"/>
    <trip id="410" depart="123.00" from="-57883829#2" to="316174519#2"/>
    <trip id="411" depart="123.30" from="-59145215" to="433783936"/>
    <trip id="412" depart="123.60" from="24076346#0" to="-131671576"/>
    <trip id="413" depart="123.90" from="219051939" to="48785420"/>
    <trip id="415" depart="124.50" from="156356420" to="-24082067#1"/>
    <trip id="416" depart="124.80" from="-24083874#12" to="571548485"/>
    <trip id="417" depart="125.10" from="-172706877#0" to="571649997"/>
    <trip id="418" depart="125.40" from="-210666451#1" to="206630536#2"/>
    <trip id="419" depart="125.70" from="219051898#0" to="-178066795#8"/>
    <trip id="421" depart="126.30" from="-571538035" to="-267582577#0"/>
    <trip id="423" depart="126.90" from="-210278879#6" to="435657102#1"/>
    <trip id="424" depart="127.20" from="219051930" to="-621313570"/>
    <trip id="425" depart="127.50" from="203231746" to="4476711#7"/>
    <trip id="426" depart="127.80" from="-24093628#6" to="-571650002#0"/>
    <trip id="427" depart="128.10" from="590851556" to="-49231339#2"/>
    <trip id="428" depart="128.40" from="-614373990" to="219051907#1"/>
    <trip id="429" depart="128.70" from="435324889#0" to="571540754#0"/>
    <trip id="430" depart="129.00" from="373849345" to="316174519#1"/>
    <trip id="431" depart="129.30" from="154289436#4" to="-218557531#0"/>
    <trip id="432" depart="129.60" from="208648684#1" to="214814219"/>
    <trip id="433" depart="129.90" from="317705319" to="185528581#2"/>
    <trip id="434" depart="130.20" from="-210666449#1" to="206630536#2"/>
    <trip id="438" depart="131.40" from="-612857346" to="-219240987#3"/>
    <trip id="440" depart="132.00" from="-116025906#1" to="-571546130"/>
    <trip id="441" depart="132.30" from="-693992497#1" to="305815470"/>
    <trip id="442" depart="132.60" from="509984922#1" to="-218395877#0"/>
    <trip id="443" depart="132.90" from="624045870#0" to="571540752"/>
    <trip id="444" depart="133.20" from="132047917#0" to="401086006"/>
    <trip id="445" depart="133.50" from="-466734734#1" to="-24083874#0"/>
    <trip id="446" depart="133.80" from="-132454527" to="612126713#1"/>
    <trip id="448" depart="134.40" from="214814222" to="225767014#1"/>
    <trip id="449" depart="134.70" from="24068919#0" to="-219051894"/>
    <trip id="450" depart="135.00" from="315089480#1" to="-267582577#0"/>
    <trip id="451" depart="135.30" from="210278911" to="314637344"/>
    <trip id="453" depart="135.90" from="-24068919#1" to="571329380#11"/>
    <trip id="454" depart="136.20" from="-571537441" to="24096792#1"/>
    <trip id="456" depart="136.80" from="-210278879#6" to="219051907#1"/>
    <trip id="457" depart="137.10" from="-490582857" to="571540466#1"/>
    <trip id="458" depart="137.40" from="-571540752" to="57883829#1"/>
    <trip id="459" depart="137.70" from="4476710#0" to="210649427#2"/>
    <trip id="460" depart="138.00" from="36898116#1" to="445158173#1"/>
    <trip id="461" depart="138.30" from="-210654966#2" to="117581807#2"/>
    <trip id="462" depart="138.60" from="-218175297" to="571537441"/>
    <trip id="463" depart="138.90" from="-571540749" to="124538335"/>
    <trip id="464" depart="139.20" from="241967451#0" to="664982212"/>
    <trip id="465" depart="139.50" from="-218557532#1" to="465034399#1"/>
    <trip id="468" depart="140.40" from="210278879#0" to="-220950833#1"/>
    <trip id="470" depart="141.00" from="210278870" to="610135081"/>
    <trip id="471" depart="141.30" from="-333702055" to="231307555"/>
    <trip id="472" depart="141.60" from="23642579" to="401086006"/>
    <trip id="473" depart="141.90" from="-522800066" to="210291681#4"/>
    <trip id="475" depart="142.50" from="-231307555" to="445158173#1"/>
    <trip id="478" depart="143.40" from="-441514510#1" to="571540973#1"/>
    <trip id="479" depart="143.70" from="-305815470" to="-224263121"/>
    <trip id="480" depart="144.00" from="-219051898#1" to="571545886"/>
    <trip id="481" depart="144.30" from="554077586" to="-435704691#0"/>
    <trip id="482" depart="144.60" from="284481974#0" to="-435558485#0"/>
    <trip id="483" depart="144.90" from="219051894" to="-145815746#0"/>
    <trip id="485" depart="145.50" from="116017008" to="316762106#0"/>
    <trip id="486" depart="145.80" from="-210654966#2" to="219051919#1"/>
    <trip id="487" depart="146.10" from="435658248" to="178573357"/>
    <trip id="488" depart="146.40" from="286298267#0" to="267582577#1"/>
    <trip id="489" depart="146.70" from="488357316#0" to="543027742"/>
    <trip id="490" depart="147.00" from="-465963058" to="571534363"/>
    <trip id="491" depart="147.30" from="531512980" to="210666451#1"/>
    <trip id="492" depart="147.60" from="241967472#0" to="210278902#1"/>
    <trip id="493" depart="147.90" from="209916954#0" to="148910692"/>
    <trip id="494" depart="148.20" from="-591860025" to="143012148#3"/>
    <trip id="497" depart="149.10" from="-591860027" to="-26232853#0"/>
    <trip id="498" depart="149.40" from="225767017#0" to="218557531#1"/>
    <trip id="500" depart="150.00" from="-218175288" to="401088918"/>
    <trip id="501" depart="150.30" from="435558485#1" to="178039124"/>
    <trip id="502" depart="150.60" from="-220950833#29" to="614373990"/>
    <trip id="503" depart="150.90" from="219051877" to="148902952#3"/>
    <trip id="504" depart="151.20" from="-207811514" to="24114451#19"/>
    <trip id="505" depart="151.50" from="-24114877" to="571558812"/>
    <trip id="506" depart="151.80" from="241967451#0" to="-620293814#1"/>
    <trip id="507" depart="152.10" from="-571540973#1" to="-218395877#0"/>
    <trip id="508" depart="152.40" from="-241967488#1" to="24092323#3"/>
    <trip id="510" depart="153.00" from="615639100" to="-591860026"/>
    <trip id="511" depart="153.30" from="-210278871" to="571538031"/>
    <trip id="512" depart="153.60" from="-571537443" to="-625621676#0"/>
    <trip id="513" depart="153.90" from="-571649999#1" to="305815462"/>
    <trip id="514" depart="154.20" from="-24114877" to="-219051907#0"/>
    <trip id="515" depart="154.50" from="210666451#0" to="433784891"/>
    <trip id="516" depart="154.80" from="206630534" to="-241967451#0"/>
    <trip id="518" depart="155.40" from="163148288#2" to="571546003"/>
    <trip id="520" depart="156.00" from="-571545886" to="35743728#3"/>
    <trip id="521" depart="156.30" from="-241967488#1" to="-571546141#0"/>
    <trip id="522" depart="156.60" from="-241967496#1" to="24092323#3"/>
    <trip id="523" depart="156.90" from="-464789761#0" to="591861398"/>
    <trip id="524" depart="157.20" from="56464429" to="522800077#1"/>
    <trip id="525" depart="157.50" from="-571540973#1" to="571535537"/>
    <trip id="526" depart="157.80" from="208648674#1" to="56572439#9"/>
    <trip id="528" depart="158.40" from="36870051#0" to="571650000#1"/>
    <trip id="529" depart="158.70" from="-571540972" to="151428239#6"/>
    <trip id="530" depart="159.00" from="-149119622#7" to="571558664"/>
    <trip id="531" depart="159.30" from="-24092930#2" to="-142994809#4"/>
    <trip id="534" depart="160.20" from="231620088" to="-219051898#0"/>
    <trip id="535" depart="160.50" from="591854354#0" to="571544996#4"/>
    <trip id="536" depart="160.80" from="488357316#0" to="571649989"/>
    <trip id="538" depart="161.40" from="401088923#1" to="-151570579#0"/>