<?xml version="1.0"?>
<!-- generated on 2019-06-04 07:50:58.842994 by $Id: route2trips.py 18237 2015-04-20 10:43:52Z namdre $ -->
<trips>
    <trip id="0" depart="0.00" from="-24069401" to="435381817"/>
    <trip id="1" depart="0.30" from="-542283582#1" to="-435704684"/>
    <trip id="3" depart="0.90" from="-610135081" to="219051920#1"/>
    <trip id="4" depart="1.20" from="-316174519#2" to="-591854367#0"/>
    <trip id="5" depart="1.50" from="24075633#1" to="148910692"/>
    <trip id="8" depart="2.40" from="-245738835#4" to="-571541351#2"/>
    <trip id="9" depart="2.70" from="254967108#1" to="24114877"/>
    <trip id="10" depart="3.00" from="-24090836#3" to="445127017"/>
    <trip id="12" depart="3.60" from="-24113276#5" to="124471125#6"/>
    <trip id="13" depart="3.90" from="-117576369" to="624087933#1"/>
    <trip id="14" depart="4.20" from="-24118319#13" to="522800077#1"/>
    <trip id="15" depart="4.50" from="152762367#0" to="254967106#1"/>
    <trip id="16" depart="4.80" from="148902963#0" to="571535545"/>
    <trip id="17" depart="5.10" from="213415140#0" to="132454530"/>
    <trip id="18" depart="5.40" from="-210649415#6" to="225767014#1"/>
    <trip id="19" depart="5.70" from="571650002#0" to="-24082073#1"/>
    <trip id="20" depart="6.00" from="23810320#1" to="317705316"/>
    <trip id="21" depart="6.30" from="-220950833#23" to="-483248154#4"/>
    <trip id="22" depart="6.60" from="24068443#0" to="218175288"/>
    <trip id="23" depart="6.90" from="-571540973#1" to="231307555"/>
    <trip id="24" depart="7.20" from="-208648752#0" to="48785308#3"/>
    <trip id="25" depart="7.50" from="210278902#0" to="24069401"/>
    <trip id="26" depart="7.80" from="-545329179#0" to="571302696"/>
    <trip id="27" depart="8.10" from="554077586" to="24082067#4"/>
    <trip id="28" depart="8.40" from="-207811511#3" to="-24083874#0"/>
    <trip id="29" depart="8.70" from="-219051920#1" to="-212377712#2"/>
    <trip id="30" depart="9.00" from="230775773" to="24079931#2"/>
    <trip id="31" depart="9.30" from="-24092323#3" to="57883829#1"/>
    <trip id="33" depart="9.90" from="542283566#2" to="445158174"/>
    <trip id="34" depart="10.20" from="148902964#0" to="660554893#2"/>
    <trip id="35" depart="10.50" from="-218175294#1" to="452922081#1"/>
    <trip id="37" depart="11.10" from="531512980" to="-295270143#0"/>
    <trip id="38" depart="11.40" from="-571545712" to="-614566941"/>
    <trip id="39" depart="11.70" from="-571540752" to="480014018#5"/>
    <trip id="40" depart="12.00" from="-218814589#1" to="151310040"/>
    <trip id="42" depart="12.60" from="-213415139#1" to="73911354#1"/>
    <trip id="43" depart="12.90" from="155560822" to="-149985167#0"/>
    <trip id="44" depart="13.20" from="207811517#0" to="-24082318#0"/>
    <trip id="45" depart="13.50" from="-220952646" to="543027742"/>
    <trip id="47" depart="14.10" from="132047917#0" to="24092323#3"/>
    <trip id="48" depart="14.40" from="-591854365" to="-219051898#0"/>
    <trip id="50" depart="15.00" from="-571545883" to="208648740"/>
    <trip id="51" depart="15.30" from="218410551" to="220952662#1"/>
    <trip id="52" depart="15.60" from="-571545710" to="571545712"/>
    <trip id="53" depart="15.90" from="571537437" to="-24090836#0"/>
    <trip id="56" depart="16.80" from="-449387217#4" to="-209916954#0"/>
    <trip id="58" depart="17.40" from="319358171#0" to="542283582#1"/>
    <trip id="59" depart="17.70" from="624087934#0" to="23696792#4"/>
    <trip id="60" depart="18.00" from="591854354#0" to="-604388934#0"/>
    <trip id="61" depart="18.30" from="-194705198" to="571538031"/>
    <trip id="63" depart="18.90" from="-214814220#0" to="124538335"/>
    <trip id="64" depart="19.20" from="210278898" to="-210278879#0"/>
    <trip id="65" depart="19.50" from="-525792862#1" to="292231932"/>
    <trip id="66" depart="19.80" from="591861395" to="503424129#1"/>
    <trip id="67" depart="20.10" from="-571540752" to="210278879#6"/>
    <trip id="68" depart="20.40" from="124471130#0" to="543790876#1"/>
    <trip id="69" depart="20.70" from="692965165" to="-145815746#6"/>
    <trip id="71" depart="21.30" from="-151673690#1" to="-591860026"/>
    <trip id="72" depart="21.60" from="-36743072#23" to="-545329178"/>
    <trip id="73" depart="21.90" from="-220952646" to="-24069251"/>
    <trip id="74" depart="22.20" from="23642579" to="218175288"/>
    <trip id="75" depart="22.50" from="-210278885#1" to="571538039"/>
    <trip id="78" depart="23.40" from="149987524#0" to="-218395880#0"/>
    <trip id="79" depart="23.70" from="24101469#1" to="571545710"/>
    <trip id="81" depart="24.30" from="-220952646" to="624087934#2"/>
    <trip id="82" depart="24.60" from="-207811517#1" to="160062324"/>
    <trip id="83" depart="24.90" from="152976468" to="35743728#3"/>
    <trip id="84" depart="25.20" from="149985167#0" to="571650002#1"/>
    <trip id="85" depart="25.50" from="433270404" to="571540770"/>
    <trip id="86" depart="25.80" from="23642579" to="219051907#1"/>
    <trip id="87" depart="26.10" from="-148902960#1" to="401086006"/>
    <trip id="88" depart="26.40" from="591861394" to="-36870051#0"/>
    <trip id="89" depart="26.70" from="73911663#0" to="-149985167#0"/>
    <trip id="91" depart="27.30" from="24114451#4" to="241967451#3"/>
    <trip id="92" depart="27.60" from="-401088918" to="-590851556"/>
    <trip id="93" depart="27.90" from="-218557531#1" to="385170064#2"/>
    <trip id="94" depart="28.20" from="-148294260#1" to="-23642579"/>
    <trip id="95" depart="28.50" from="241967451#0" to="218557532#1"/>
    <trip id="96" depart="28.80" from="-145815746#10" to="210665982#7"/>
    <trip id="98" depart="29.40" from="-333702055" to="-24069251"/>
    <trip id="99" depart="29.70" from="-669001994" to="-571650000#0"/>
    <trip id="100" depart="30.00" from="-36743072#23" to="-210278870"/>
    <trip id="102" depart="30.60" from="116041754#1" to="305815462"/>
    <trip id="103" depart="30.90" from="-445158173#1" to="682944104#3"/>
    <trip id="104" depart="31.20" from="-435558478#1" to="591854365"/>
    <trip id="105" depart="31.50" from="-143930348" to="435324915#2"/>
    <trip id="106" depart="31.80" from="56460697#1" to="24111997#0"/>
    <trip id="107" depart="32.10" from="-24113276#5" to="-245738831#0"/>
    <trip id="108" depart="32.40" from="633949079#0" to="693992497#1"/>
    <trip id="109" depart="32.70" from="-254967106#1" to="210278894"/>
    <trip id="110" depart="33.00" from="56150137#0" to="571541351#1"/>
    <trip id="111" depart="33.30" from="-148910696" to="24082067#4"/>
    <trip id="112" depart="33.60" from="-292339723#2" to="-218175290"/>
    <trip id="115" depart="34.50" from="-519888258" to="-604388934#0"/>
    <trip id="116" depart="34.80" from="-452922081#1" to="-433780231#0"/>
    <trip id="118" depart="35.40" from="591856891" to="449387217#4"/>
    <trip id="119" depart="35.70" from="152976468" to="571548485"/>
    <trip id="120" depart="36.00" from="-571537440" to="-193697628"/>
    <trip id="122" depart="36.60" from="591854349" to="624045869#4"/>
    <trip id="123" depart="36.90" from="-571540668" to="-218410551"/>
    <trip id="125" depart="37.50" from="621313565#0" to="225767014#1"/>
    <trip id="127" depart="38.10" from="-219051920#1" to="149987552#1"/>
    <trip id="128" depart="38.40" from="-571546145" to="-435724105#0"/>
    <trip id="129" depart="38.70" from="591854354#0" to="-499084041#0"/>
    <trip id="130" depart="39.00" from="-254967106#1" to="-305815464#1"/>
    <trip id="131" depart="39.30" from="-219051915#3" to="571329374#1"/>
    <trip id="132" depart="39.60" from="-24090836#3" to="245738835#4"/>
    <trip id="133" depart="39.90" from="-213415139#1" to="571302696"/>
    <trip id="135" depart="40.50" from="-154289437#1" to="435657102#1"/>
    <trip id="136" depart="40.80" from="245738831#0" to="151310040"/>
    <trip id="137" depart="41.10" from="24069251" to="148902966#1"/>
    <trip id="138" depart="41.40" from="210278891#0" to="571540712#1"/>
    <trip id="139" depart="41.70" from="56150087#1" to="149985167#1"/>
    <trip id="140" depart="42.00" from="-31232144" to="59678396#0"/>
    <trip id="141" depart="42.30" from="-245738835#4" to="220952662#1"/>
    <trip id="142" depart="42.60" from="-571545717" to="163148288#10"/>
    <trip id="143" depart="42.90" from="151428247#2" to="-219051935"/>
    <trip id="144" depart="43.20" from="-591861396" to="435724038"/>
    <trip id="146" depart="43.80" from="-245738831#1" to="-669781834#0"/>
    <trip id="147" depart="44.10" from="-24079931#2" to="-24082318#0"/>
    <trip id="148" depart="44.40" from="-469217058" to="206630536#2"/>
    <trip id="151" depart="45.30" from="-24082067#4" to="24113276#1"/>
    <trip id="152" depart="45.60" from="24077554#0" to="693992497#1"/>
    <trip id="154" depart="46.20" from="614566941" to="207811514"/>
    <trip id="155" depart="46.50" from="145815746#0" to="-219051910"/>
    <trip id="158" depart="47.40" from="56152948#0" to="571540466#1"/>
    <trip id="159" depart="47.70" from="-178205329" to="571545712"/>
    <trip id="163" depart="48.90" from="621313566" to="435724103#0"/>
    <trip id="164" depart="49.20" from="49231338#1" to="24082316#2"/>
    <trip id="165" depart="49.50" from="208648629" to="-571650000#0"/>
    <trip id="166" depart="49.80" from="4694846#0" to="23700520#6"/>
    <trip id="168" depart="50.40" from="210278875" to="213415139#1"/>
    <trip id="169" depart="50.70" from="48785421" to="210665975#0"/>
    <trip id="170" depart="51.00" from="23701595#0" to="24079801#5"/>
    <trip id="171" depart="51.30" from="-571535537" to="152976469"/>
    <trip id="172" depart="51.60" from="210278905#0" to="-312901464#0"/>
    <trip id="173" depart="51.90" from="-231289624#1" to="145815748#3"/>
    <trip id="174" depart="52.20" from="24113397#1" to="-337812625#1"/>
    <trip id="175" depart="52.50" from="432375792#2" to="148910696"/>
    <trip id="178" depart="53.40" from="56150506" to="317704265"/>
    <trip id="179" depart="53.70" from="-449387217#4" to="610135079"/>
    <trip id="180" depart="54.00" from="-241967451#3" to="480014018#5"/>
    <trip id="181" depart="54.30" from="-571540973#1" to="-210278902#0"/>
    <trip id="182" depart="54.60" from="-571545710" to="148294260#1"/>
    <trip id="183" depart="54.90" from="435724057#0" to="-483248154#0"/>
    <trip id="184" depart="55.20" from="56150087#1" to="-178252323#0"/>
    <trip id="185" depart="55.50" from="-207811508" to="314637344"/>
    <trip id="186" depart="55.80" from="591854354#0" to="305815470"/>
    <trip id="187" depart="56.10" from="-220952645" to="57883829#1"/>
    <trip id="189" depart="56.70" from="-218175294#1" to="207811508"/>
    <trip id="190" depart="57.00" from="149987524#0" to="24101550#0"/>
    <trip id="192" depart="57.60" from="614566936" to="209879614"/>
    <trip id="193" depart="57.90" from="-543790876#1" to="435324908#1"/>
    <trip id="194" depart="58.20" from="571329376#1" to="214814217#1"/>
    <trip id="195" depart="58.50" from="-151675569#3" to="193698046"/>
    <trip id="196" depart="58.80" from="-24092323#3" to="571558664"/>
    <trip id="197" depart="59.10" from="-525615639" to="219051907#1"/>
    <trip id="198" depart="59.40" from="218814595#0" to="-208648756#1"/>
    <trip id="200" depart="60.00" from="-305815457" to="-210278870"/>
    <trip id="201" depart="60.30" from="286298267#0" to="542283572#1"/>
    <trip id="202" depart="60.60" from="218814586" to="-23642579"/>
    <trip id="203" depart="60.90" from="509984922#3" to="79654801#3"/>
    <trip id="204" depart="61.20" from="-210278905#3" to="445158174"/>
    <trip id="205" depart="61.50" from="-152976465" to="-219051918#0"/>
    <trip id="206" depart="61.80" from="-542283563#1" to="612857348"/>
    <trip id="207" depart="62.10" from="-59145215" to="24077597#6"/>
    <trip id="209" depart="62.70" from="-435724116" to="-214814212"/>
    <trip id="210" depart="63.00" from="-245738835#2" to="305815462"/>
    <trip id="212" depart="63.60" from="-312901457#3" to="435657102#1"/>
    <trip id="213" depart="63.90" from="-514505609#6" to="24092323#3"/>
    <trip id="216" depart="64.80" from="219051925" to="194705198"/>
    <trip id="218" depart="65.40" from="231620088" to="-614566941"/>
    <trip id="219" depart="65.70" from="-24071752#0" to="49231335#1"/>
    <trip id="220" depart="66.00" from="-490582857" to="-206630534"/>
    <trip id="221" depart="66.30" from="-463524539" to="210665971#1"/>
    <trip id="222" depart="66.60" from="-24077597#6" to="-24075634#0"/>
    <trip id="223" depart="66.90" from="24118319#0" to="219240987#1"/>
    <trip id="224" depart="67.20" from="116017008" to="49231288#1"/>
    <trip id="226" depart="67.80" from="626751310#1" to="-621313565#0"/>
    <trip id="227" depart="68.10" from="24082318#0" to="-286298267#0"/>
    <trip id="228" depart="68.40" from="-571537455#1" to="218814589#1"/>
    <trip id="229" depart="68.70" from="-24114451#19" to="-571545681#1"/>
    <trip id="230" depart="69.00" from="-530612042#1" to="223669252#1"/>
    <trip id="232" depart="69.60" from="-292339723#2" to="24079931#2"/>
    <trip id="233" depart="69.90" from="404110760#3" to="220952646"/>
    <trip id="234" depart="70.20" from="-571534486" to="571534364"/>
    <trip id="236" depart="70.80" from="-480014018#5" to="610135077#1"/>
    <trip id="237" depart="71.10" from="-210649418#1" to="591860027"/>
    <trip id="238" depart="71.40" from="-466734734#1" to="591854362"/>
    <trip id="239" depart="71.70" from="-151673690#1" to="465506511"/>
    <trip id="240" depart="72.00" from="-610135079" to="305815463"/>
    <trip id="241" depart="72.30" from="-207811508" to="185528581#2"/>
    <trip id="242" depart="72.60" from="-571534639" to="24092323#3"/>
    <trip id="243" depart="72.90" from="241967472#0" to="595957877"/>
    <trip id="244" depart="73.20" from="-445158173#1" to="-206631843#3"/>
    <trip id="245" depart="73.50" from="-24070981#1" to="591854360"/>
    <trip id="246" depart="73.80" from="190820979" to="435657098#1"/>
    <trip id="249" depart="74.70" from="-223669254#2" to="571534364"/>
    <trip id="250" depart="75.00" from="-231307555" to="571545883"/>
    <trip id="252" depart="75.60" from="-401086006" to="-224263121"/>
    <trip id="254" depart="76.20" from="-571535545" to="-24090836#0"/>
    <trip id="256" depart="76.80" from="435658248" to="254967106#1"/>
    <trip id="257" depart="77.10" from="219051901" to="571329923#1"/>
    <trip id="259" depart="77.70" from="-154289437#1" to="-210666451#0"/>
    <trip id="260" depart="78.00" from="24075634#0" to="24079355#5"/>
    <trip id="261" depart="78.30" from="-433780224" to="567173822#0"/>
    <trip id="262" depart="78.60" from="-591860025" to="241967488#1"/>
    <trip id="266" depart="79.80" from="117578185#1" to="24069160"/>
    <trip id="268" depart="80.40" from="218557531#0" to="490575665"/>
    <trip id="269" depart="80.70" from="-31232144" to="24090836#3"/>
    <trip id="271" depart="81.30" from="591854354#0" to="-207811513#0"/>
    <trip id="272" depart="81.60" from="-223669252#1" to="-56460400"/>
    <trip id="273" depart="81.90" from="59678333" to="571558812"/>
    <trip id="274" depart="82.20" from="-337812625#0" to="-210278898"/>
    <trip id="278" depart="83.40" from="-143012148#3" to="-26232853#0"/>
    <trip id="281" depart="84.30" from="571544589#1" to="-116017008"/>
    <trip id="282" depart="84.60" from="-571538031" to="-203231738"/>
    <trip id="285" depart="85.50" from="148261306" to="242256327"/>
    <trip id="286" depart="85.80" from="-433777235#0" to="-219051918#0"/>
    <trip id="288" depart="86.40" from="-317705316" to="213415139#1"/>
    <trip id="290" depart="87.00" from="-545329173" to="435724109#0"/>
    <trip id="291" depart="87.30" from="-210665978" to="591860025"/>
    <trip id="292" depart="87.60" from="231620088" to="191355884#4"/>
    <trip id="293" depart="87.90" from="117574771#2" to="449387217#4"/>
    <trip id="294" depart="88.20" from="203231746" to="-23701604#0"/>
    <trip id="295" depart="88.50" from="-219240987#7" to="-219051902"/>
    <trip id="296" depart="88.80" from="219051918#0" to="95357377#4"/>
    <trip id="297" depart="89.10" from="-210654966#2" to="571540772"/>
    <trip id="298" depart="89.40" from="385889739#0" to="-591860026"/>
    <trip id="299" depart="89.70" from="-591861398" to="-214814224#1"/>
    <trip id="300" depart="90.00" from="499084041#0" to="220950833#14"/>
    <trip id="302" depart="90.60" from="-571548485" to="24082067#4"/>
    <trip id="303" depart="90.90" from="435724043#4" to="24113276#2"/>
    <trip id="304" depart="91.20" from="230775773" to="210278879#6"/>
    <trip id="305" depart="91.50" from="-24082067#4" to="-571546130"/>
    <trip id="306" depart="91.80" from="548172840#0" to="-149119622#3"/>
    <trip id="307" depart="92.10" from="49231294#0" to="24073630"/>
    <trip id="308" depart="92.40" from="-571329379#3" to="219051907#1"/>
    <trip id="310" depart="93.00" from="25373575#1" to="591860027"/>
    <trip id="311" depart="93.30" from="-612126713#1" to="35743728#3"/>
    <trip id="312" depart="93.60" from="-24082067#4" to="468154315"/>
    <trip id="313" depart="93.90" from="-148294260#1" to="571540466#1"/>
    <trip id="314" depart="94.20" from="571650000#0" to="218175299#1"/>
    <trip id="315" depart="94.50" from="-210666451#1" to="-295270142"/>
    <trip id="316" depart="94.80" from="218175290" to="-145815746#0"/>
    <trip id="317" depart="95.10" from="-490582855" to="-116042806#0"/>
    <trip id="318" depart="95.40" from="-178205329" to="-219051901"/>
    <trip id="320" depart="96.00" from="-591854368" to="466734734#1"/>
    <trip id="321" depart="96.30" from="-210649415#1" to="49231400#0"/>
    <trip id="322" depart="96.60" from="-267582577#1" to="480014018#5"/>
    <trip id="323" depart="96.90" from="-571537442" to="571540768#1"/>
    <trip id="324" depart="97.20" from="-178039128#0" to="-210278875"/>
    <trip id="326" depart="97.80" from="-561167665#1" to="-224263121"/>
    <trip id="328" depart="98.40" from="-571540972" to="571537441"/>
    <trip id="329" depart="98.70" from="-207811508" to="207811504#1"/>
    <trip id="331" depart="99.30" from="-571546138" to="295270143#1"/>
    <trip id="334" depart="100.20" from="-151309636#0" to="-692965165"/>
    <trip id="335" depart="100.50" from="-151310335#1" to="79654801#3"/>
    <trip id="337" depart="101.10" from="-218175294#1" to="591861398"/>
    <trip id="343" depart="102.90" from="219051907#0" to="149985167#1"/>
    <trip id="344" depart="103.20" from="435542925#3" to="151428224#3"/>
    <trip id="345" depart="103.50" from="218395877#0" to="143012148#3"/>
    <trip id="347" depart="104.10" from="-179116700" to="445158173#1"/>
    <trip id="349" depart="104.70" from="-24105260" to="315089479#2"/>
    <trip id="350" depart="105.00" from="-567173822#1" to="-203231744"/>
    <trip id="351" depart="105.30" from="-445158179#7" to="-468098035#0"/>
    <trip id="353" depart="105.90" from="-207811515#1" to="219332193#1"/>
    <trip id="355" depart="106.50" from="-305815470" to="-571538047#0"/>
    <trip id="356" depart="106.80" from="-571540467#1" to="571534363"/>
    <trip id="360" depart="108.00" from="-214814217#1" to="-178252323#0"/>
    <trip id="361" depart="108.30" from="-612126714#1" to="143012148#3"/>
    <trip id="364" depart="109.20" from="-148902960#1" to="23888175#1"/>
    <trip id="365" depart="109.50" from="-36743072#23" to="115908230#3"/>
    <trip id="366" depart="109.80" from="206631847" to="445127017"/>
    <trip id="368" depart="110.40" from="-24106370#1" to="591854362"/>
    <trip id="370" depart="111.00" from="151179180#0" to="-116042806#0"/>
    <trip id="371" depart="111.30" from="36870051#0" to="-218814586"/>
    <trip id="372" depart="111.60" from="-591854368" to="-48785328#0"/>
    <trip id="373" depart="111.90" from="24442704#0" to="218557529#1"/>
    <trip id="374" depart="112.20" from="591854349" to="571650001#1"/>
    <trip id="375" depart="112.50" from="-466734734#1" to="-614566936"/>
    <trip id="376" depart="112.80" from="241967472#0" to="571548483"/>
    <trip id="378" depart="113.40" from="-433783936" to="-542283552#1"/>
    <trip id="379" depart="113.70" from="433246688" to="148910693"/>
    <trip id="380" depart="114.00" from="56150506" to="612857348"/>
    <trip id="383" depart="114.90" from="218410551" to="305815463"/>
    <trip id="384" depart="115.20" from="151570579#0" to="142916146#2"/>
    <trip id="385" depart="115.50" from="-178039124" to="363061166#1"/>
    <trip id="386" depart="115.80" from="-178039128#1" to="214814217#1"/>
    <trip id="388" depart="116.40" from="23701604#0" to="571545712"/>
    <trip id="390" depart="117.00" from="-292231929" to="116042804#17"/>
    <trip id="391" depart="117.30" from="-571544590#1" to="23811277#0"/>
    <trip id="392" depart="117.60" from="-591861397#1" to="-337809962#2"/>
    <trip id="393" depart="117.90" from="-305815470" to="571540466#1"/>
    <trip id="394" depart="118.20" from="218814586" to="-441462669#0"/>
    <trip id="395" depart="118.50" from="-445359464" to="148910675"/>
    <trip id="396" depart="118.80" from="-207811507#1" to="438733284#0"/>
    <trip id="397" depart="119.10" from="116846059#3" to="213415137#1"/>
    <trip id="398" depart="119.40" from="435704684" to="401088918"/>
    <trip id="399" depart="119.70" from="231620088" to="571540772"/>
    <trip id="400" depart="120.00" from="23701020" to="-218557531#0"/>
    <trip id="402" depart="120.60" from="548172840#0" to="-210666451#0"/>
    <trip id="403" depart="120.90" from="56460400" to="466734734#1"/>
    <trip id="404" depart="121.20" from="-571546138" to="465034399#1"/>
    <trip id="405" depart="121.50" from="143012148#1" to="571540668"/>
    <trip id="407" depart="122.10" from="278403361#0" to="219051898#1"/>
    <trip id="408" depart="122.40" from="-116041754#2" to="24113276#5"/>
    <trip id="409" depart="122.70" from="-614373990" to="305815470"/>
    <trip id="410" depart="123.00" from="433246688" to="445158179#3"/>
    <trip id="411" depart="123.30" from="-223669254#2" to="-615639100"/>
    <trip id="412" depart="123.60" from="-218175295#2" to="571548484"/>
    <trip id="413" depart="123.90" from="-218175294#1" to="-219051913"/>
    <trip id="414" depart="124.20" from="624045870#0" to="36743072#23"/>
    <trip id="415" depart="124.50" from="241967488#0" to="95357377#4"/>
    <trip id="416" depart="124.80" from="-149119622#7" to="24088510#2"/>
    <trip id="417" depart="125.10" from="-571329367" to="571534486"/>
    <trip id="418" depart="125.40" from="-207811515#1" to="-24082318#0"/>
    <trip id="420" depart="126.00" from="34573263#0" to="116042804#17"/>
    <trip id="421" depart="126.30" from="-571546145" to="151570579#2"/>
    <trip id="422" depart="126.60" from="-612857346" to="210665971#1"/>
    <trip id="423" depart="126.90" from="249986137" to="571538031"/>
    <trip id="424" depart="127.20" from="-571540777" to="24114451#19"/>
    <trip id="426" depart="127.80" from="571537445#0" to="-24106369#0"/>
    <trip id="428" depart="128.40" from="-591860025" to="218175295#2"/>
    <trip id="429" depart="128.70" from="152760567" to="-241967451#0"/>
    <trip id="430" depart="129.00" from="-59401052#2" to="148910675"/>
    <trip id="431" depart="129.30" from="-151171587" to="241967488#1"/>
    <trip id="433" depart="129.90" from="-178039128#1" to="-24093628#4"/>
    <trip id="434" depart="130.20" from="-219051915#3" to="-571540759#0"/>
    <trip id="435" depart="130.50" from="218395880#0" to="207811508"/>
    <trip id="436" depart="130.80" from="-241967496#1" to="24088510#2"/>
    <trip id="437" depart="131.10" from="36743072#3" to="5120694#2"/>
    <trip id="438" depart="131.40" from="56150074" to="315828473#1"/>
    <trip id="439" depart="131.70" from="-571649999#1" to="31232188"/>
    <trip id="440" depart="132.00" from="-316174519#2" to="571540668"/>
    <trip id="443" depart="132.90" from="509984922#3" to="612126714#1"/>
    <trip id="444" depart="133.20" from="24068919#0" to="216991854#1"/>
    <trip id="445" depart="133.50" from="-571537441" to="-666633619#4"/>
    <trip id="446" depart="133.80" from="571650000#0" to="178039128#1"/>
    <trip id="447" depart="134.10" from="-612126713#1" to="218175297"/>
    <trip id="448" depart="134.40" from="-316174519#2" to="401086006"/>
    <trip id="449" depart="134.70" from="590859828" to="292231937"/>
    <trip id="450" depart="135.00" from="-571649989" to="-154289424#3"/>
    <trip id="451" depart="135.30" from="267582577#0" to="24069160"/>
    <trip id="453" depart="135.90" from="219051939" to="633304807"/>
    <trip id="454" depart="136.20" from="-178042327" to="571546139"/>
    <trip id="455" depart="136.50" from="-292231932" to="-24082318#0"/>
    <trip id="456" depart="136.80" from="143928402#0" to="-206630532"/>
    <trip id="457" depart="137.10" from="-154827478" to="571534362"/>
    <trip id="460" depart="138.00" from="-483248154#1" to="-23642579"/>
    <trip id="461" depart="138.30" from="-210649415#6" to="543790876#1"/>
    <trip id="462" depart="138.60" from="-220952646" to="-207811517#0"/>
    <trip id="463" depart="138.90" from="-571546139" to="4630404#15"/>
    <trip id="464" depart="139.20" from="24069251" to="178205329"/>
    <trip id="465" depart="139.50" from="-571649989" to="-610135077#0"/>
    <trip id="466" depart="139.80" from="286298267#0" to="433270408"/>
    <trip id="467" depart="140.10" from="-210666449#1" to="-24442704#0"/>
    <trip id="468" depart="140.40" from="-24105260" to="314637344"/>
    <trip id="469" depart="140.70" from="-480014018#5" to="207811519#1"/>
    <trip id="470" depart="141.00" from="149985167#0" to="124471125#6"/>
    <trip id="471" depart="141.30" from="-143012148#3" to="179116700"/>
    <trip id="474" depart="142.20" from="-194705198" to="116041754#2"/>
    <trip id="475" depart="142.50" from="-543790876#1" to="207811517#1"/>
    <trip id="476" depart="142.80" from="219051913" to="571650003#3"/>
    <trip id="477" depart="143.10" from="207811507#0" to="23701595#3"/>
    <trip id="478" depart="143.40" from="23884876" to="-24082067#0"/>
    <trip id="479" depart="143.70" from="116017008" to="542283563#1"/>
    <trip id="480" depart="144.00" from="-590536154" to="151310335#1"/>
    <trip id="481" depart="144.30" from="209916954#0" to="145799518#3"/>
    <trip id="482" depart="144.60" from="320480951#4" to="178039124"/>
    <trip id="483" depart="144.90" from="-571540759#1" to="615900431"/>
    <trip id="484" depart="145.20" from="-571650003#3" to="219051898#1"/>
    <trip id="485" depart="145.50" from="-693992497#1" to="-210278911"/>
    <trip id="487" depart="146.10" from="-152976474#1" to="48785112#2"/>
    <trip id="490" depart="147.00" from="178252323#0" to="-148902953"/>
    <trip id="491" depart="147.30" from="-610135081" to="571329380#8"/>
    <trip id="492" depart="147.60" from="-571540813" to="591861398"/>
    <trip id="493" depart="147.90" from="219051918#0" to="-614566936"/>
    <trip id="494" depart="148.20" from="-543790876#1" to="132047918"/>
    <trip id="496" depart="148.80" from="-148910673" to="24118319#12"/>
    <trip id="497" depart="149.10" from="571537437" to="-590851552"/>
    <trip id="498" depart="149.40" from="-24114451#12" to="-614566936"/>
    <trip id="499" depart="149.70" from="4694846#0" to="490582855"/>
    <trip id="500" depart="150.00" from="-245738835#4" to="219332193#1"/>
    <trip id="501" depart="150.30" from="-57883829#2" to="295270143#1"/>
    <trip id="502" depart="150.60" from="-219051922#1" to="542283582#1"/>
    <trip id="503" depart="150.90" from="-317705316" to="152976474#1"/>
    <trip id="504" depart="151.20" from="-185528581#2" to="-591854354#0"/>
    <trip id="506" depart="151.80" from="-149987552#1" to="571538046"/>
    <trip id="508" depart="152.40" from="117581807#1" to="509984923"/>
    <trip id="509" depart="152.70" from="-36743072#10" to="571545886"/>
    <trip id="510" depart="153.00" from="-152762501" to="-468098035#0"/>
    <trip id="511" depart="153.30" from="-571537442" to="-591854349"/>
    <trip id="512" depart="153.60" from="-24114877" to="210278879#6"/>
    <trip id="513" depart="153.90" from="210278905#0" to="154289436#8"/>
    <trip id="514" depart="154.20" from="24083874#0" to="210278883#1"/>
    <trip id="516" depart="154.80" from="24442704#0" to="142916146#2"/>
    <trip id="518" depart="155.40" from="24114451#14" to="132047918"/>
    <trip id="520" depart="156.00" from="604388934#1" to="4630404#1"/>
    <trip id="521" depart="156.30" from="24076346#2" to="36743072#23"/>
    <trip id="522" depart="156.60" from="488357316#0" to="624087933#1"/>
    <trip id="523" depart="156.90" from="-660554893#1" to="571540772"/>
    <trip id="524" depart="157.20" from="-24114877" to="317705316"/>
    <trip id="527" depart="158.10" from="24082067#0" to="571538034"/>
    <trip id="528" depart="158.40" from="-669001994" to="-24118319#0"/>
    <trip id="529" depart="158.70" from="124471101-AddedOffRampEdge" to="571558812"/>
    <trip id="530" depart="159.00" from="-612857346" to="-591861395"/>
    <trip id="532" depart="159.60" from="148261306" to="142916146#2"/>
    <trip id="533" depart="159.90" from="207811507#0" to="294839950#4"/>
    <trip id="534" depart="160.20" from="-612857347" to="543027742"/>
    <trip id="535" depart="160.50" from="210278891#0" to="59407145#3"/>
    <trip id="536" depart="160.80" from="116017008" to="151570579#2"/>
    <trip id="538" depart="161.40" from="591854367#0" to="571540772"/>
    <trip id="539" depart="161.70" from="218395877#0" to="674641533#0"/>
    <trip id="540" depart="162.00" from="-571537442" to="245738835#4"/>
    <trip id="541" depart="162.30" from="-571540466#1" to="-219051894"/>
    <trip id="542" depart="162.60" from="591854349" to="401086006"/>
    <trip id="543" depart="162.90" from="-48785113#1" to="-24118319#10"/>
    <trip id="544" depart="163.20" from="-571540972" to="49231288#1"/>